*Node
      1,         -25.,           0.,         200.
      2,         -25.,           5.,         200.
      3,         -25.,           0.,   184.615387
      4,         -25.,           5.,   184.615387
      5,         -25.,           0.,   169.230774
      6,         -25.,           5.,   169.230774
      7,         -25.,           0.,   153.846161
      8,         -25.,           5.,   153.846161
      9,         -25.,           0.,   138.461533
     10,         -25.,           5.,   138.461533
     11,         -25.,           0.,    123.07692
     12,         -25.,           5.,    123.07692
     13,         -25.,           0.,   107.692307
     14,         -25.,           5.,   107.692307
     15,         -25.,           0.,   92.3076935
     16,         -25.,           5.,   92.3076935
     17,         -25.,           0.,   76.9230804
     18,         -25.,           5.,   76.9230804
     19,         -25.,           0.,   61.5384598
     20,         -25.,           5.,   61.5384598
** ... 120 like lines cut
*Element, type=C3D8R
 1,  29,  30,  32,  31,   1,   2,   4,   3
 2,  31,  32,  34,  33,   3,   4,   6,   5
 3,  33,  34,  36,  35,   5,   6,   8,   7
 4,  35,  36,  38,  37,   7,   8,  10,   9
 5,  37,  38,  40,  39,   9,  10,  12,  11
 6,  39,  40,  42,  41,  11,  12,  14,  13
 7,  41,  42,  44,  43,  13,  14,  16,  15
 8,  43,  44,  46,  45,  15,  16,  18,  17
 9,  45,  46,  48,  47,  17,  18,  20,  19
10,  47,  48,  50,  49,  19,  20,  22,  21
11,  49,  50,  52,  51,  21,  22,  24,  23
12,  51,  52,  54,  53,  23,  24,  26,  25
13,  53,  54,  56,  55,  25,  26,  28,  27
14,  57,  58,  60,  59,  29,  30,  32,  31
15,  59,  60,  62,  61,  31,  32,  34,  33
16,  61,  62,  64,  63,  33,  34,  36,  35
17,  63,  64,  66,  65,  35,  36,  38,  37
18,  65,  66,  68,  67,  37,  38,  40,  39
19,  67,  68,  70,  69,  39,  40,  42,  41
20,  69,  70,  72,  71,  41,  42,  44,  43
** ... 32 like lines cut
*Nset, nset=Part-1-1_Set-2, generate
   1,  140,    1
*Elset, elset=Part-1-1_Set-2, generate
  1,  52,   1
** Section: Section-1
*Solid Section, elset=Part-1-1_Set-2, material=Material-1
,
*System
*Nset, nset=Set-1
   1,   2,  29,  30,  57,  58,  85,  86, 113, 114
*Elset, elset=Set-1, generate
  1,  40,  13
*Nset, nset=Set-2
 140,
** 
** MATERIALS
** 
*Material, name=Material-1
*Elastic
70000., 0.33
** ----------------------------------------------------------------
** 
** STEP: Step-1
** 
*Step, name=Step-1, nlgeom=NO
*Static
1., 1., 1e-05, 1.
** 
** BOUNDARY CONDITIONS
** 
** Name: BC-1 Type: Displacement/Rotation
*Boundary
Set-1, 1, 1
Set-1, 2, 2
Set-1, 3, 3
** 
** LOADS
** 
** Name: Load-1   Type: Concentrated force
*Cload
Set-2, 1, 100.

*End Step
