** written by FreeCAD inp file writer for CalculiX,Abaqus meshes
** highest dimension mesh elements only.

** Nodes
*Node, NSET=Nall
1, 10, 0.1, 0
2, 10, 0.1, 10
3, 10, 0, 0
4, 10, 0, 10
5, 0, 0.1, 0
6, 0, 0.1, 10
7, 0, 0, 0
8, 0, 0, 10
9, 0.1, 0.1, 10
10, 0.22, 0.1, 10
11, 0.32, 0.1, 10
12, 0.42, 0.1, 10
13, 0.53, 0.1, 10
14, 0.64, 0.1, 10
15, 0.74, 0.1, 10
16, 0.85, 0.1, 10
17, 0.96, 0.1, 10
18, 1.06, 0.1, 10
19, 1.17, 0.1, 10
20, 1.27, 0.1, 10
** ... 12451 like lines cut


** Volume elements
*Element, TYPE=C3D4, ELSET=Evolumes
25651, 1647, 1636, 7208, 7505
25652, 7981, 8015, 1831, 7672
25653, 7945, 8202, 8215, 2224
25654, 3806, 9263, 3995, 3747
25655, 7520, 1650, 2015, 7519
25656, 2043, 7895, 7894, 8167
25657, 7083, 785, 1153, 786
25658, 11715, 5940, 11813, 11812
25659, 5940, 11715, 11714, 11812
25660, 2197, 8261, 8003, 2474
25661, 1652, 7517, 7518, 7221
25662, 589, 400, 588, 868
25663, 7796, 1954, 2015, 7520
25664, 9870, 9874, 10070, 4057
25665, 1169, 1170, 6998, 802
25666, 2530, 2314, 8410, 8411
25667, 1914, 7737, 2198, 1913
25668, 11859, 11945, 12028, 6055
25669, 8280, 2277, 8191, 8026
25670, 1525, 7656, 7420, 7109
** ... 37800 like lines cut

** Define element set Eall
*ELSET, ELSET=Eall
Evolumes



***********************************************************
** Element sets for materials and FEM element type (solid, shell, beam, fluid)
** written by write_element_sets_material_and_femelement_type function
*ELSET,ELSET=SolidMaterialSolid
Evolumes

***********************************************************
** Node sets for fixed constraint
** written by write_node_sets_constraints_fixed function
** FemConstraintFixed
*NSET,NSET=FemConstraintFixed
1,
2,
3,
4,
573,
574,
575,
576,
577,
578,
579,
580,
581,
582,
583,
584,
585,
586,
587,
588,
** ... 172 like lines cut

***********************************************************
** Materials
** written by write_materials function
** Young's modulus unit is MPa = N/mm2
** FreeCAD material name: CalculiX-Steel
** SolidMaterial
*MATERIAL, NAME=SolidMaterial
*Conductivity
245.,
*Elastic
70000., 0.33

***********************************************************
** Sections
** written by write_femelementsets function
*SOLID SECTION, ELSET=SolidMaterialSolid, MATERIAL=SolidMaterial

*STEP
*Heat Transfer, steady state, deltmx=0.
1., 1., 1e-05, 1.,
***********************************************************
** Constaints
** written by write_constraints_fixed function
*BOUNDARY
FemConstraintFixed,11,11,0
FemConstraintFixed,11,11,0
FemConstraintFixed,11,11,0
***********************************************************
** Displacement constraint applied
** written by write_constraints_displacement function
***********************************************************
** Node loads
** written by write_constraints_force function
*Dflux
Eall, BF, -1.0
*END STEP 