** written by FreeCAD inp file writer for CalculiX,Abaqus meshes
** highest dimension mesh elements only.

** Nodes
*Node, NSET=Nall
1, -13, 7, 1
2, -13, 7, 0
3, -13, -7, 1
4, -12, 7, 1
5, -13, -7, 0
6, -12, 7, 0
7, 20, -10, 1
8, 20, -10, 0
9, -20, -10, 1
10, -20, -10, 0
11, 20, 10, 1
12, 20, 10, 0
13, -20, 10, 1
14, -20, 10, 0
15, -13, 7, 0.505
16, -13.12369331996, 7.481753674102, 0
17, -13.46417320502, 7.844327925502, 0
18, -13.94975568182, 7.998736956606, 0
19, -14.44838321609, 7.893841424151, 0
20, -14.8443279255, 7.535826794979, 0
** ... 2052 like lines cut


** Volume elements
*Element, TYPE=C3D4, ELSET=Evolumes
4436, 538, 1444, 539, 592
4437, 1603, 885, 1510, 1683
4438, 1179, 1135, 1136, 1960
4439, 808, 958, 1683, 885
4440, 939, 863, 940, 1746
4441, 445, 574, 1268, 446
4442, 1877, 1035, 1139, 1056
4443, 571, 1396, 442, 1342
4444, 193, 1313, 380, 270
4445, 1106, 1156, 1953, 1931
4446, 634, 1570, 633, 1414
4447, 1925, 1106, 1953, 1931
4448, 799, 704, 702, 1573
4449, 591, 1283, 471, 1444
4450, 1239, 279, 390, 280
4451, 670, 1560, 769, 768
4452, 389, 519, 1370, 520
4453, 644, 1640, 643, 1565
4454, 1673, 836, 889, 1722
4455, 1371, 392, 391, 522
** ... 6049 like lines cut

** Define element set Eall
*ELSET, ELSET=Eall
Evolumes



***********************************************************
** Element sets for materials and FEM element type (solid, shell, beam, fluid)
** written by write_element_sets_material_and_femelement_type function
*ELSET,ELSET=SolidMaterialSolid
4436,
4437,
4438,
4439,
4440,
4441,
4442,
4443,
4444,
4445,
4446,
4447,
4448,
4449,
4450,
4451,
4452,
4453,
4454,
4455,
** ... 5862 like lines cut
*ELSET,ELSET=SolidMaterial001Solid
5868,
5942,
6024,
7021,
7064,
7249,
10312,
10313,
10314,
10315,
10316,
10317,
10318,
10319,
10320,
10321,
10322,
10323,
10324,
10325,
** ... 167 like lines cut

***********************************************************
** Node sets for fixed constraint
** written by write_node_sets_constraints_fixed function
** FemConstraintFixed
*NSET,NSET=FemConstraintFixed
68,
1,
2,
3,
5,
66,
15,
16,
17,
18,
19,
20,
21,
22,
23,
24,
25,
26,
27,
28,
** ... 50 like lines cut

***********************************************************
** Materials
** written by write_materials function
** Young's modulus unit is MPa = N/mm2
** FreeCAD material name: CalculiX-Steel
** SolidMaterial
*MATERIAL, NAME=SolidMaterial
*ELASTIC
210000, 0.300
** FreeCAD material name: CalculiX-Steel
** SolidMaterial001
*MATERIAL, NAME=SolidMaterial001
*ELASTIC
210000, 0.300

***********************************************************
** Sections
** written by write_femelementsets function
*SOLID SECTION, ELSET=SolidMaterialSolid, MATERIAL=SolidMaterial
*SOLID SECTION, ELSET=SolidMaterial001Solid, MATERIAL=SolidMaterial001

***********************************************************
** At least one step is needed to run an CalculiX analysis of FreeCAD
** written by write_step_begin function
*STEP
*STATIC


***********************************************************
** Fixed Constraints
** written by write_constraints_fixed function
** FemConstraintFixed
*BOUNDARY
FemConstraintFixed,1
FemConstraintFixed,2
FemConstraintFixed,3


***********************************************************
** Node loads Constraints
** written by write_constraints_force function
*CLOAD
** FemConstraintForce
** node loads on shape: BooleanFragments:Edge8
7,2,-5.0000000000000E-01
8,2,-5.0000000000000E-01



***********************************************************
** Outputs --> frd file
** written by write_outputs_types function
*NODE FILE
U
*EL FILE
S, E
** outputs --> dat file
*NODE PRINT , NSET=Nall
U 
*EL PRINT , ELSET=Eall
S 

***********************************************************
** written by write_step_end function
*END STEP 

***********************************************************
** CalculiX Input file
** written by write_footer function
**   written by    --> FreeCAD 0.17.13541 (Git)
**   written on    --> Thu Nov 22 12:47:57 2018
**   file name     --> FixedPlate.FCStd
**   analysis name --> Analysis
**
**
**
**   Units
**
**   Geometry (mesh data)        --> mm
**   Materials (Young's modulus) --> N/mm2 = MPa
**   Loads (nodal loads)         --> N
**
