*Node
      1,         -25.,           0.,         200.
      2,         -25.,           5.,         200.
      3,         -25.,           5.,           0.
      4,         -25.,           0.,           0.
      5,          30.,           5.,         200.
      6,          30.,           5.,           0.
      7,          30.,           0.,           0.
      8,          30.,           0.,         200.
      9,         -25.,           5.,   184.615387
     10,         -25.,           5.,   169.230774
     11,         -25.,           5.,   153.846161
     12,         -25.,           5.,   138.461533
     13,         -25.,           5.,    123.07692
     14,         -25.,           5.,   107.692307
     15,         -25.,           5.,   92.3076935
     16,         -25.,           5.,   76.9230804
     17,         -25.,           5.,   61.5384598
     18,         -25.,           5.,   46.1538467
     19,         -25.,           5.,   30.7692299
     20,         -25.,           5.,   15.3846149
** ... 829 like lines cut
*Element, type=C3D10
  1, 102, 141, 140,  99, 157, 156, 155, 159, 158, 160
  2,  21, 141,   3,  20, 163, 162, 161, 165, 164, 166
  3, 141,  53,  50, 102, 169, 168, 167, 157, 170, 171
  4,   3,   4, 141,  21, 173, 172, 162, 161, 174, 163
  5, 137, 141, 140,  21, 176, 156, 175, 177, 163, 178
  6, 102, 141,  99,  19, 157, 158, 159, 180, 179, 181
  7, 141, 137,  99,  22, 176, 182, 158, 184, 183, 185
  8, 137,  21,  22, 141, 177, 186, 183, 176, 163, 184
  9,  20, 141, 102,  19, 164, 157, 187, 188, 179, 180
 10,  22,  20, 141,  21, 189, 164, 184, 186, 165, 163
 11, 142, 130, 127,  94, 192, 191, 190, 194, 193, 195
 12,  19,  20, 141,  22, 188, 164, 179, 196, 189, 184
 13,  73, 143,  70,  69, 199, 198, 197, 201, 200, 202
 14, 143, 107, 106,  70, 205, 204, 203, 198, 206, 207
 15, 126, 130, 127, 142, 209, 191, 208, 210, 192, 190
 16, 108, 109, 105,  70, 213, 212, 211, 215, 214, 216
 17, 107, 143,  69,  70, 205, 200, 217, 206, 198, 202
 18, 110, 106, 109, 143, 220, 219, 218, 221, 203, 222
 19, 144,  48,   7,  51, 225, 224, 223, 227, 226, 228
 20,  57, 138, 144,  51, 231, 230, 229, 233, 232, 227
** ... 384 like lines cut
*Nset, nset=Part-1-1_Set-2, generate
   1,  849,    1
*Elset, elset=Part-1-1_Set-2, generate
   1,  404,    1
** Section: Section-1
*Solid Section, elset=Part-1-1_Set-2, material=Material-1
,
*System
*Nset, nset=Set-1
   1,   2,   5,   8,  33,  34,  35,  54,  55,  56, 442, 457, 466, 467, 468, 470
 721, 724, 725, 727, 728, 767, 771, 774, 778, 844, 846
*Elset, elset=Set-1
  92, 206, 210, 258, 263, 274, 328, 379
*Nset, nset=Set-2
 6,
** 
** MATERIALS
** 
*Material, name=Material-1
*Elastic
70000., 0.33
** ----------------------------------------------------------------
** 
** STEP: Step-1
** 
*Step, name=Step-1, nlgeom=NO
*Static
1., 1., 1e-05, 1.
** 
** BOUNDARY CONDITIONS
** 
** Name: BC-1 Type: Displacement/Rotation
*Boundary
Set-1, 1, 1
Set-1, 2, 2
Set-1, 3, 3
*Cload
Set-2, 1, 100.
*End Step
