*Heading
 C:\Users\Denk\Desktop\Rechteck_40x20x10_grob.inp
*NODE
1, 0, 0, 0
2, 0, 0, 10
3, 0, 20, 0
4, 0, 20, 10
5, 40, 0, 0
6, 40, 0, 10
7, 40, 20, 0
8, 40, 20, 10
9, 0, 0, 1.6666666666667
10, 0, 0, 3.3333333333333
11, 0, 0, 5
12, 0, 0, 6.6666666666667
13, 0, 0, 8.3333333333333
14, 0, 2, 0
15, 0, 4, 0
16, 0, 6, 0
17, 0, 8, 0
18, 0, 10, 0
19, 0, 12, 0
20, 0, 14, 0
** ... 28479 like lines cut
******* E L E M E N T S *************
*ELEMENT, type=C3D8, ELSET=e_all
443633, 1208, 1211, 3481, 1213, 1214, 3482, 3485, 3483
443634, 1211, 920, 1212, 3481, 3482, 1216, 3484, 3485
443635, 1213, 3481, 1212, 931, 3483, 3485, 3484, 1215
443636, 955, 1216, 3482, 1214, 1215, 3484, 3485, 3483
443637, 924, 1217, 3486, 1219, 1220, 3487, 3490, 3488
443638, 1217, 967, 1218, 3486, 3487, 1222, 3489, 3490
443639, 1219, 3486, 1218, 926, 3488, 3490, 3489, 1221
443640, 988, 1222, 3487, 1220, 1221, 3489, 3490, 3488
443641, 498, 1223, 3491, 1225, 1226, 3492, 3495, 3493
443642, 1223, 918, 1224, 3491, 3492, 1228, 3494, 3495
443643, 1225, 3491, 1224, 1140, 3493, 3495, 3494, 1227
443644, 945, 1228, 3492, 1226, 1227, 3494, 3495, 3493
443645, 699, 1229, 3496, 1231, 1232, 3497, 3500, 3498
443646, 1229, 922, 1230, 3496, 3497, 1234, 3499, 3500
443647, 1231, 3496, 1230, 1195, 3498, 3500, 3499, 1233
443648, 940, 1234, 3497, 1232, 1233, 3499, 3500, 3498
443649, 923, 1235, 3501, 1237, 1238, 3502, 3505, 3503
443650, 1235, 924, 1236, 3501, 3502, 1240, 3504, 3505
443651, 1237, 3501, 1236, 951, 3503, 3505, 3504, 1239
443652, 978, 1240, 3502, 1238, 1239, 3504, 3505, 3503
** ... 26536 like lines cut
*MATERIAL, name=skeletonMat
*Conductivity
245.,
*Elastic
70000., 0.33
*SOLID SECTION,elset=e_all,material=skeletonMat
*Step, name=Step-1, nlgeom=NO 
*Heat Transfer, steady state, deltmx=0.
1., 1., 1e-05, 1.,
*Boundary 
382,11,11,0.0
388,11,11,0.0
469,11,11,0.0
469,11,11,0.0
389,11,11,0.0
382,11,11,0.0
388,11,11,0.0
102,11,11,0.0
103,11,11,0.0
103,11,11,0.0
469,11,11,0.0
388,11,11,0.0
389,11,11,0.0
469,11,11,0.0
103,11,11,0.0
103,11,11,0.0
104,11,11,0.0
389,11,11,0.0
95,11,11,0.0
288,11,11,0.0
** ... 5452 like lines cut
*Dflux 
e_all, BF, -1.0 
*End Step 
