*Heading
** Job name: Job-1 Model name: Model-1
** Generated by: Abaqus/CAE Student Edition 2016
*Preprint, echo=NO, model=NO, history=NO, contact=NO
** ----------------------------------------------------------------
** 
** PART INSTANCE: Part-1-1
** 
*Node
      1,         -30.,          -5.,          15.
      2,         -30.,          -3.,          15.
      3,         -30.,          -1.,          15.
      4,         -30.,           1.,          15.
      5,         -30.,           3.,          15.
      6,         -30.,           5.,          15.
      7,         -30.,          -5.,       13.125
      8,         -30.,          -3.,       13.125
      9,         -30.,          -1.,       13.125
     10,         -30.,           1.,       13.125
     11,         -30.,           3.,       13.125
     12,         -30.,           5.,       13.125
     13,         -30.,          -5.,        11.25
     14,         -30.,          -3.,        11.25
     15,         -30.,          -1.,        11.25
     16,         -30.,           1.,        11.25
     17,         -30.,           3.,        11.25
     18,         -30.,           5.,        11.25
     19,         -30.,          -5.,        9.375
     20,         -30.,          -3.,        9.375
** ... 574 like lines cut
*Element, type=DC3D8
  1,  55,  56,  62,  61,   1,   2,   8,   7
  2,  56,  57,  63,  62,   2,   3,   9,   8
  3,  57,  58,  64,  63,   3,   4,  10,   9
  4,  58,  59,  65,  64,   4,   5,  11,  10
  5,  59,  60,  66,  65,   5,   6,  12,  11
  6,  61,  62,  68,  67,   7,   8,  14,  13
  7,  62,  63,  69,  68,   8,   9,  15,  14
  8,  63,  64,  70,  69,   9,  10,  16,  15
  9,  64,  65,  71,  70,  10,  11,  17,  16
 10,  65,  66,  72,  71,  11,  12,  18,  17
 11,  67,  68,  74,  73,  13,  14,  20,  19
 12,  68,  69,  75,  74,  14,  15,  21,  20
 13,  69,  70,  76,  75,  15,  16,  22,  21
 14,  70,  71,  77,  76,  16,  17,  23,  22
 15,  71,  72,  78,  77,  17,  18,  24,  23
 16,  73,  74,  80,  79,  19,  20,  26,  25
 17,  74,  75,  81,  80,  20,  21,  27,  26
 18,  75,  76,  82,  81,  21,  22,  28,  27
 19,  76,  77,  83,  82,  22,  23,  29,  28
 20,  77,  78,  84,  83,  23,  24,  30,  29
** ... 380 like lines cut
*Nset, nset=Part-1-1_Set-1, generate
   1,  594,    1
*Elset, elset=Part-1-1_Set-1, generate
   1,  400,    1
** Section: Section-1
*Solid Section, elset=Part-1-1_Set-1, material=Material-1
,
*System
*Nset, nset=Set-1, generate
   1,  594,    1
*Elset, elset=Set-1, generate
   1,  400,    1
*Nset, nset=Set-2
   1,   2,   3,   4,   5,   6,   7,   8,   9,  10,  11,  12,  13,  14,  15,  16
  17,  18,  19,  20,  21,  22,  23,  24,  25,  26,  27,  28,  29,  30,  31,  32
  33,  34,  35,  36,  37,  38,  39,  40,  41,  42,  43,  44,  45,  46,  47,  48
  49,  50,  51,  52,  53,  54,  55,  56,  57,  58,  59,  60,  61,  66,  67,  72
  73,  78,  79,  84,  85,  90,  91,  96,  97, 102, 103, 104, 105, 106, 107, 108
 109, 110, 111, 112, 113, 114, 115, 120, 121, 126, 127, 132, 133, 138, 139, 144
 145, 150, 151, 156, 157, 158, 159, 160, 161, 162, 163, 164, 165, 166, 167, 168
 169, 174, 175, 180, 181, 186, 187, 192, 193, 198, 199, 204, 205, 210, 211, 212
 213, 214, 215, 216, 217, 218, 219, 220, 221, 222, 223, 228, 229, 234, 235, 240
 241, 246, 247, 252, 253, 258, 259, 264, 265, 266, 267, 268, 269, 270, 271, 272
 273, 274, 275, 276, 277, 282, 283, 288, 289, 294, 295, 300, 301, 306, 307, 312
 313, 318, 319, 320, 321, 322, 323, 324, 325, 326, 327, 328, 329, 330, 331, 336
 337, 342, 343, 348, 349, 354, 355, 360, 361, 366, 367, 372, 373, 374, 375, 376
 377, 378, 379, 380, 381, 382, 383, 384, 385, 390, 391, 396, 397, 402, 403, 408
 409, 414, 415, 420, 421, 426, 427, 428, 429, 430, 431, 432, 433, 434, 435, 436
 437, 438, 439, 444, 445, 450, 451, 456, 457, 462, 463, 468, 469, 474, 475, 480
 481, 482, 483, 484, 485, 486, 487, 488, 489, 490, 491, 492, 493, 498, 499, 504
 505, 510, 511, 516, 517, 522, 523, 528, 529, 534, 535, 536, 537, 538, 539, 540
 541, 542, 543, 544, 545, 546, 547, 548, 549, 550, 551, 552, 553, 554, 555, 556
 557, 558, 559, 560, 561, 562, 563, 564, 565, 566, 567, 568, 569, 570, 571, 572
 573, 574, 575, 576, 577, 578, 579, 580, 581, 582, 583, 584, 585, 586, 587, 588
 589, 590, 591, 592, 593, 594
*Elset, elset=Set-2
   1,   2,   3,   4,   5,   6,   7,   8,   9,  10,  11,  12,  13,  14,  15,  16
  17,  18,  19,  20,  21,  22,  23,  24,  25,  26,  27,  28,  29,  30,  31,  32
  33,  34,  35,  36,  37,  38,  39,  40,  41,  42,  43,  44,  45,  46,  50,  51
  55,  56,  60,  61,  65,  66,  70,  71,  75,  76,  77,  78,  79,  80,  81,  82
  83,  84,  85,  86,  90,  91,  95,  96, 100, 101, 105, 106, 110, 111, 115, 116
 117, 118, 119, 120, 121, 122, 123, 124, 125, 126, 130, 131, 135, 136, 140, 141
 145, 146, 150, 151, 155, 156, 157, 158, 159, 160, 161, 162, 163, 164, 165, 166
 170, 171, 175, 176, 180, 181, 185, 186, 190, 191, 195, 196, 197, 198, 199, 200
 201, 202, 203, 204, 205, 206, 210, 211, 215, 216, 220, 221, 225, 226, 230, 231
 235, 236, 237, 238, 239, 240, 241, 242, 243, 244, 245, 246, 250, 251, 255, 256
 260, 261, 265, 266, 270, 271, 275, 276, 277, 278, 279, 280, 281, 282, 283, 284
 285, 286, 290, 291, 295, 296, 300, 301, 305, 306, 310, 311, 315, 316, 317, 318
 319, 320, 321, 322, 323, 324, 325, 326, 330, 331, 335, 336, 340, 341, 345, 346
 350, 351, 355, 356, 357, 358, 359, 360, 361, 362, 363, 364, 365, 366, 367, 368
 369, 370, 371, 372, 373, 374, 375, 376, 377, 378, 379, 380, 381, 382, 383, 384
 385, 386, 387, 388, 389, 390, 391, 392, 393, 394, 395, 396, 397, 398, 399, 400
** 
** MATERIALS
** 
*Material, name=Material-1
*Conductivity
250.,
** ----------------------------------------------------------------
** 
** STEP: Step-1
** 
*Step, name=Step-1, nlgeom=NO
*Heat Transfer, steady state, deltmx=0.
1., 1., 1e-05, 1., 
** 
** BOUNDARY CONDITIONS
** 
** Name: BC-1 Type: Temperature
*Boundary
Set-2, 11, 11, 1.
** 
** LOADS
** 
** Name: Load-1   Type: Body heat flux
*Dflux
Set-1, BF, 100.
** 
** OUTPUT REQUESTS
** 
*Restart, write, frequency=0
** 
** FIELD OUTPUT: F-Output-1
** 
*Output, field, variable=PRESELECT
*Output, history, frequency=0
*End Step
