*Heading
** Job name: Job-1 Model name: Model-1
** Generated by: Abaqus/CAE Student Edition 2016
*Preprint, echo=NO, model=NO, history=NO, contact=NO
**
** PARTS
**
*Part, name=Part-1
*Node
      1,          60.,           5.,           0.
      2,   58.5964928,           5.,           0.
      3,   57.1929817,           5.,           0.
      4,   55.7894745,           5.,           0.
      5,   54.3859634,           5.,           0.
      6,   52.9824562,           5.,           0.
      7,    51.578949,           5.,           0.
      8,   50.1754379,           5.,           0.
      9,   48.7719307,           5.,           0.
     10,   47.3684196,           5.,           0.
     11,   45.9649124,           5.,           0.
     12,   44.5614052,           5.,           0.
     13,   43.1578941,           5.,           0.
     14,   41.7543869,           5.,           0.
     15,   40.3508759,           5.,           0.
     16,   38.9473686,           5.,           0.
     17,   37.5438614,           5.,           0.
     18,   36.1403503,           5.,           0.
     19,   34.7368431,           5.,           0.
     20,   33.3333321,           5.,           0.
** ... 850 like lines cut
*Element, type=S4R
  1,   1,   2,  60,  59
  2,   2,   3,  61,  60
  3,   3,   4,  62,  61
  4,   4,   5,  63,  62
  5,   5,   6,  64,  63
  6,   6,   7,  65,  64
  7,   7,   8,  66,  65
  8,   8,   9,  67,  66
  9,   9,  10,  68,  67
 10,  10,  11,  69,  68
 11,  11,  12,  70,  69
 12,  12,  13,  71,  70
 13,  13,  14,  72,  71
 14,  14,  15,  73,  72
 15,  15,  16,  74,  73
 16,  16,  17,  75,  74
 17,  17,  18,  76,  75
 18,  18,  19,  77,  76
 19,  19,  20,  78,  77
 20,  20,  21,  79,  78
** ... 778 like lines cut
*Nset, nset=Set-1, generate
   1,  870,    1
*Elset, elset=Set-1, generate
   1,  798,    1
** Section: Section-1
*Shell Section, elset=Set-1, material=Material-1
1., 5
*End Part
**  
**
** ASSEMBLY
**
*Assembly, name=Assembly
**  
*Instance, name=Part-1-1, part=Part-1
*End Instance
**  
*Nset, nset=Set-1, instance=Part-1-1, generate
   1,  870,    1
*Elset, elset=Set-1, instance=Part-1-1, generate
   1,  798,    1
*Nset, nset=Set-2, instance=Part-1-1
   1,   2,   3,   4,   5,   6,   7,   8,   9,  10,  11,  12,  13,  14,  15,  16
  17,  18,  19,  20,  21,  22,  23,  24,  25,  26,  27,  28,  29,  30,  31,  32
  33,  34,  35,  36,  37,  38,  39,  40,  41,  42,  43,  44,  45,  46,  47,  48
  49,  50,  51,  52,  53,  54,  55,  56,  57,  58,  59, 116, 117, 174, 175, 232
 233, 290, 291, 348, 349, 406, 407, 464, 465, 522, 523, 580, 581, 638, 639, 696
 697, 754, 755, 812, 813, 814, 815, 816, 817, 818, 819, 820, 821, 822, 823, 824
 825, 826, 827, 828, 829, 830, 831, 832, 833, 834, 835, 836, 837, 838, 839, 840
 841, 842, 843, 844, 845, 846, 847, 848, 849, 850, 851, 852, 853, 854, 855, 856
 857, 858, 859, 860, 861, 862, 863, 864, 865, 866, 867, 868, 869, 870
*Elset, elset=Set-2, instance=Part-1-1
   1,   2,   3,   4,   5,   6,   7,   8,   9,  10,  11,  12,  13,  14,  15,  16
  17,  18,  19,  20,  21,  22,  23,  24,  25,  26,  27,  28,  29,  30,  31,  32
  33,  34,  35,  36,  37,  38,  39,  40,  41,  42,  43,  44,  45,  46,  47,  48
  49,  50,  51,  52,  53,  54,  55,  56,  57,  58, 114, 115, 171, 172, 228, 229
 285, 286, 342, 343, 399, 400, 456, 457, 513, 514, 570, 571, 627, 628, 684, 685
 741, 742, 743, 744, 745, 746, 747, 748, 749, 750, 751, 752, 753, 754, 755, 756
 757, 758, 759, 760, 761, 762, 763, 764, 765, 766, 767, 768, 769, 770, 771, 772
 773, 774, 775, 776, 777, 778, 779, 780, 781, 782, 783, 784, 785, 786, 787, 788
 789, 790, 791, 792, 793, 794, 795, 796, 797, 798
*Nset, nset=Set-3, instance=Part-1-1
   1,   2,   3,   4,   5,   6,   7,   8,   9,  10,  11,  12,  13,  14,  15,  16
  17,  18,  19,  20,  21,  22,  23,  24,  25,  26,  27,  28,  29,  30,  31,  32
  33,  34,  35,  36,  37,  38,  39,  40,  41,  42,  43,  44,  45,  46,  47,  48
  49,  50,  51,  52,  53,  54,  55,  56,  57,  58,  59, 116, 117, 174, 175, 232
 233, 290, 291, 348, 349, 406, 407, 464, 465, 522, 523, 580, 581, 638, 639, 696
 697, 754, 755, 812, 813, 814, 815, 816, 817, 818, 819, 820, 821, 822, 823, 824
 825, 826, 827, 828, 829, 830, 831, 832, 833, 834, 835, 836, 837, 838, 839, 840
 841, 842, 843, 844, 845, 846, 847, 848, 849, 850, 851, 852, 853, 854, 855, 856
 857, 858, 859, 860, 861, 862, 863, 864, 865, 866, 867, 868, 869, 870
*Elset, elset=Set-3, instance=Part-1-1
   1,   2,   3,   4,   5,   6,   7,   8,   9,  10,  11,  12,  13,  14,  15,  16
  17,  18,  19,  20,  21,  22,  23,  24,  25,  26,  27,  28,  29,  30,  31,  32
  33,  34,  35,  36,  37,  38,  39,  40,  41,  42,  43,  44,  45,  46,  47,  48
  49,  50,  51,  52,  53,  54,  55,  56,  57,  58, 114, 115, 171, 172, 228, 229
 285, 286, 342, 343, 399, 400, 456, 457, 513, 514, 570, 571, 627, 628, 684, 685
 741, 742, 743, 744, 745, 746, 747, 748, 749, 750, 751, 752, 753, 754, 755, 756
 757, 758, 759, 760, 761, 762, 763, 764, 765, 766, 767, 768, 769, 770, 771, 772
 773, 774, 775, 776, 777, 778, 779, 780, 781, 782, 783, 784, 785, 786, 787, 788
 789, 790, 791, 792, 793, 794, 795, 796, 797, 798
*Elset, elset=_Surf-1_SPOS, internal, instance=Part-1-1, generate
   1,  798,    1
*Surface, type=ELEMENT, name=Surf-1
_Surf-1_SPOS, SPOS
*End Assembly
** 
** MATERIALS
** 
*Material, name=Material-1
*Conductivity
 5.656,
*Elastic
 2.7e+06, 0.3
** ----------------------------------------------------------------
** 
** STEP: Step-1
** 
*Step, name=Step-1, nlgeom=NO
*Static
1., 1., 1e-05, 1.
** 
** BOUNDARY CONDITIONS
** 
** Name: BC-1 Type: Displacement/Rotation
*Boundary
Set-3, 1, 1
Set-3, 2, 2
Set-3, 3, 3
** 
** LOADS
** 
** Name: Load-1   Type: Pressure
*Dsload
Surf-1, P, 1.
** 
** OUTPUT REQUESTS
** 
*Restart, write, frequency=0
** 
** FIELD OUTPUT: F-Output-1
** 
*Output, field
*Node Output
CF, RF, U
*Element Output, directions=YES
ELEDEN, ELEN, ENER, LE, PE, PEEQ, PEMAG, S
*Contact Output
CDISP, CSTRESS
** 
** HISTORY OUTPUT: H-Output-1
** 
*Output, history, variable=PRESELECT
*End Step
