*Heading
** Job name: Job-1 Model name: Model-1
** Generated by: Abaqus/CAE Student Edition 2016
*Preprint, echo=NO, model=NO, history=NO, contact=NO
** ----------------------------------------------------------------
** 
** PART INSTANCE: Part-1-1
** 
*Node
      1,         -40.,           0.,           1.
      2,         -40.,           1.,           1.
      3,         -40.,           2.,           1.
      4,         -40.,           3.,           1.
      5,         -40.,           4.,           1.
      6,         -40.,           5.,           1.
      7,         -40.,           6.,           1.
      8,         -40.,           7.,           1.
      9,         -40.,           8.,           1.
     10,         -40.,           9.,           1.
     11,         -40.,          10.,           1.
     12,         -40.,           0.,           0.
     13,         -40.,           1.,           0.
     14,         -40.,           2.,           0.
     15,         -40.,           3.,           0.
     16,         -40.,           4.,           0.
     17,         -40.,           5.,           0.
     18,         -40.,           6.,           0.
     19,         -40.,           7.,           0.
     20,         -40.,           8.,           0.
** ... 882 like lines cut
*Element, type=DC3D8
  1,  23,  24,  35,  34,   1,   2,  13,  12
  2,  24,  25,  36,  35,   2,   3,  14,  13
  3,  25,  26,  37,  36,   3,   4,  15,  14
  4,  26,  27,  38,  37,   4,   5,  16,  15
  5,  27,  28,  39,  38,   5,   6,  17,  16
  6,  28,  29,  40,  39,   6,   7,  18,  17
  7,  29,  30,  41,  40,   7,   8,  19,  18
  8,  30,  31,  42,  41,   8,   9,  20,  19
  9,  31,  32,  43,  42,   9,  10,  21,  20
 10,  32,  33,  44,  43,  10,  11,  22,  21
 11,  45,  46,  57,  56,  23,  24,  35,  34
 12,  46,  47,  58,  57,  24,  25,  36,  35
 13,  47,  48,  59,  58,  25,  26,  37,  36
 14,  48,  49,  60,  59,  26,  27,  38,  37
 15,  49,  50,  61,  60,  27,  28,  39,  38
 16,  50,  51,  62,  61,  28,  29,  40,  39
 17,  51,  52,  63,  62,  29,  30,  41,  40
 18,  52,  53,  64,  63,  30,  31,  42,  41
 19,  53,  54,  65,  64,  31,  32,  43,  42
 20,  54,  55,  66,  65,  32,  33,  44,  43
** ... 380 like lines cut
*Nset, nset=Part-1-1_Set-2, generate
   1,  902,    1
*Elset, elset=Part-1-1_Set-2, generate
   1,  400,    1
** Section: Section-1
*Solid Section, elset=Part-1-1_Set-2, material=Material-1
,
*System
*Nset, nset=Set-1, generate
   1,  902,    1
*Elset, elset=Set-1, generate
   1,  400,    1
*Nset, nset=Set-2
   1,   2,   3,   4,   5,   6,   7,   8,   9,  10,  11,  12,  13,  14,  15,  16
  17,  18,  19,  20,  21,  22,  23,  33,  34,  44,  45,  55,  56,  66,  67,  77
  78,  88,  89,  99, 100, 110, 111, 121, 122, 132, 133, 143, 144, 154, 155, 165
 166, 176, 177, 187, 188, 198, 199, 209, 210, 220, 221, 231, 232, 242, 243, 253
 254, 264, 265, 275, 276, 286, 287, 297, 298, 308, 309, 319, 320, 330, 331, 341
 342, 352, 353, 363, 364, 374, 375, 385, 386, 396, 397, 407, 408, 418, 419, 429
 430, 440, 441, 451, 452, 462, 463, 473, 474, 484, 485, 495, 496, 506, 507, 517
 518, 528, 529, 539, 540, 550, 551, 561, 562, 572, 573, 583, 584, 594, 595, 605
 606, 616, 617, 627, 628, 638, 639, 649, 650, 660, 661, 671, 672, 682, 683, 693
 694, 704, 705, 715, 716, 726, 727, 737, 738, 748, 749, 759, 760, 770, 771, 781
 782, 792, 793, 803, 804, 814, 815, 825, 826, 836, 837, 847, 848, 858, 859, 869
 870, 880, 881, 882, 883, 884, 885, 886, 887, 888, 889, 890, 891, 892, 893, 894
 895, 896, 897, 898, 899, 900, 901, 902
*Elset, elset=Set-2
   1,   2,   3,   4,   5,   6,   7,   8,   9,  10,  11,  20,  21,  30,  31,  40
  41,  50,  51,  60,  61,  70,  71,  80,  81,  90,  91, 100, 101, 110, 111, 120
 121, 130, 131, 140, 141, 150, 151, 160, 161, 170, 171, 180, 181, 190, 191, 200
 201, 210, 211, 220, 221, 230, 231, 240, 241, 250, 251, 260, 261, 270, 271, 280
 281, 290, 291, 300, 301, 310, 311, 320, 321, 330, 331, 340, 341, 350, 351, 360
 361, 370, 371, 380, 381, 390, 391, 392, 393, 394, 395, 396, 397, 398, 399, 400
** 
** MATERIALS
** 
*Material, name=Material-1
*Conductivity
250.,
** ----------------------------------------------------------------
** 
** STEP: Step-1
** 
*Step, name=Step-1, nlgeom=NO
*Heat Transfer, steady state, deltmx=0.
1., 1., 1e-05, 1., 
** 
** BOUNDARY CONDITIONS
** 
** Name: BC-1 Type: Temperature
*Boundary
Set-2, 11, 11
** 
** LOADS
** 
** Name: Load-1   Type: Body heat flux
*Dflux
Set-1, BF, 1.
** 
** OUTPUT REQUESTS
** 
*Restart, write, frequency=0
** 
** FIELD OUTPUT: F-Output-1
** 
*Output, field, variable=PRESELECT
*Output, history, frequency=0
*End Step
