** written by FreeCAD inp file writer for CalculiX,Abaqus meshes
** highest dimension mesh elements only.

** Nodes
*Node, NSET=Nall
1, -13, 7, 2
2, -13, 7, 0
3, -13, -7, 2
4, -12, 7, 2
5, -13, -7, 0
6, -12, 7, 0
7, 20, -10, 2
8, 20, -10, 0
9, -20, -10, 2
10, -20, -10, 0
11, 20, 10, 2
12, 20, 10, 0
13, -20, 10, 2
14, -20, 10, 0
15, -13, 7, 0.68
16, -13, 7, 1.334
17, -13.30183458101, 7.715936483022, 0
18, -14.00628314397, 7.999980260856, 0
19, -14.69816541899, 7.715936483022, 0
20, -14.99928947264, 7.03769018267, 0
** ... 6434 like lines cut


** Volume elements
*Element, TYPE=C3D10, ELSET=Evolumes
2138, 1044, 5, 696, 1067, 3878, 2937, 3880, 3881, 3879, 3882
2139, 172, 343, 614, 227, 1791, 3883, 3885, 3762, 3884, 2703
2140, 588, 576, 593, 887, 2629, 2635, 2637, 3887, 3886, 3888
2141, 576, 883, 593, 887, 3889, 3890, 2635, 3886, 3630, 3888
2142, 620, 238, 184, 239, 2717, 3697, 3891, 2716, 1312, 3698
2143, 294, 1, 46, 79, 3892, 1406, 1548, 1551, 3893, 1530
2144, 727, 526, 763, 792, 3894, 3895, 3195, 3278, 3896, 3267
2145, 279, 1025, 987, 984, 3897, 3898, 3900, 3901, 3899, 3902
2146, 244, 894, 910, 975, 3672, 3903, 3790, 3905, 3904, 3906
2147, 183, 675, 351, 350, 3907, 3908, 1814, 1812, 3909, 1816
2148, 294, 1, 79, 16, 3892, 3893, 1551, 3910, 1072, 3911
2149, 465, 806, 778, 736, 3912, 3341, 3913, 3914, 3315, 3230
2150, 1009, 105, 633, 308, 3915, 2743, 3916, 3917, 1657, 3918
2151, 34, 288, 255, 274, 1534, 3919, 3920, 1587, 1588, 3921
2152, 839, 1048, 559, 953, 3922, 3923, 3925, 3926, 3924, 3927
2153, 1005, 1053, 1007, 1003, 3928, 3929, 3931, 3932, 3930, 3933
2154, 977, 974, 975, 976, 3934, 3935, 3937, 3938, 3936, 3939
2155, 848, 841, 809, 548, 3539, 3448, 3511, 3941, 3940, 3942
2156, 821, 524, 953, 554, 3943, 3944, 3945, 3946, 2475, 3947
2157, 335, 906, 907, 610, 3948, 3748, 3950, 3951, 3949, 3952
** ... 3401 like lines cut

** Define element set Eall
*ELSET, ELSET=Eall
Evolumes



***********************************************************
** Element sets for materials and FEM element type (solid, shell, beam, fluid)
** written by write_element_sets_material_and_femelement_type function
*ELSET,ELSET=SolidMaterialSolid
2138,
2139,
2140,
2141,
2142,
2144,
2145,
2146,
2147,
2149,
2150,
2152,
2153,
2154,
2155,
2156,
2157,
2159,
2160,
2161,
** ... 3186 like lines cut
*ELSET,ELSET=SolidMaterial001Solid
2143,
2148,
2151,
2158,
2247,
2251,
2260,
2266,
2271,
2274,
2285,
2300,
2302,
2303,
2319,
2323,
2327,
2336,
2338,
2343,
** ... 195 like lines cut

***********************************************************
** Node sets for fixed constraint
** written by write_node_sets_constraints_fixed function
** FemConstraintFixed
*NSET,NSET=FemConstraintFixed
1,
2,
3,
5,
15,
16,
17,
18,
19,
20,
21,
22,
23,
24,
25,
26,
27,
28,
29,
30,
** ... 188 like lines cut

***********************************************************
** Materials
** written by write_materials function
** Young's modulus unit is MPa = N/mm2
** FreeCAD material name: CalculiX-Steel
** DesignSpace
*MATERIAL, NAME=SolidMaterial
*ELASTIC
210000, 0.300
** FreeCAD material name: CalculiX-Steel
** NoDesignSpace
*MATERIAL, NAME=SolidMaterial001
*ELASTIC
210000, 0.300

***********************************************************
** Sections
** written by write_femelementsets function
*SOLID SECTION, ELSET=SolidMaterialSolid, MATERIAL=SolidMaterial
*SOLID SECTION, ELSET=SolidMaterial001Solid, MATERIAL=SolidMaterial001

***********************************************************
** At least one step is needed to run an CalculiX analysis of FreeCAD
** written by write_step_begin function
*STEP
*STATIC


***********************************************************
** Fixed Constraints
** written by write_constraints_fixed function
** FemConstraintFixed
*BOUNDARY
FemConstraintFixed,1
FemConstraintFixed,2
FemConstraintFixed,3


***********************************************************
** Node loads Constraints
** written by write_constraints_force function
*CLOAD
** FemConstraintForce
** node loads on shape: BooleanFragments:Edge8
7,2,-5.3833333333333E-02
8,2,-5.9833333333333E-02
80,2,-1.1283333333333E-01
81,2,-1.0683333333333E-01
1144,2,-2.3933333333333E-01
1145,2,-2.1200000000000E-01
1146,2,-2.1533333333333E-01



***********************************************************
** Outputs --> frd file
** written by write_outputs_types function
*NODE FILE
U
*EL FILE
S, E
** outputs --> dat file
*NODE PRINT , NSET=Nall
U 
*EL PRINT , ELSET=Eall
S 

***********************************************************
** written by write_step_end function
*END STEP 

***********************************************************
** CalculiX Input file
** written by write_footer function
**   written by    --> FreeCAD 0.17.13541 (Git)
**   written on    --> Thu Nov 22 12:22:08 2018
**   file name     --> FixedPlate.FCStd
**   analysis name --> Analysis
**
**
**
**   Units
**
**   Geometry (mesh data)        --> mm
**   Materials (Young's modulus) --> N/mm2 = MPa
**   Loads (nodal loads)         --> N
**
