*Heading
** Job name: Job-1 Model name: Model-1
** Generated by: Abaqus/CAE Student Edition 2016
*Preprint, echo=NO, model=NO, history=NO, contact=NO
** ----------------------------------------------------------------
** 
** PART INSTANCE: Part-1-1
** 
*Node
      1,         -40.,           0.,  0.699999988
      2,         -40.,  0.714285731,  0.699999988
      3,         -40.,   1.42857146,  0.699999988
      4,         -40.,   2.14285707,  0.699999988
      5,         -40.,   2.85714293,  0.699999988
      6,         -40.,   3.57142854,  0.699999988
      7,         -40.,   4.28571415,  0.699999988
      8,         -40.,           5.,  0.699999988
      9,         -40.,           0.,           0.
     10,         -40.,  0.714285731,           0.
     11,         -40.,   1.42857146,           0.
     12,         -40.,   2.14285707,           0.
     13,         -40.,   2.85714293,           0.
     14,         -40.,   3.57142854,           0.
     15,         -40.,   4.28571415,           0.
     16,         -40.,           5.,           0.
     17,  -39.3103447,           0.,  0.699999988
     18,  -39.3103447,  0.714285731,  0.699999988
     19,  -39.3103447,   1.42857146,  0.699999988
     20,  -39.3103447,   2.14285707,  0.699999988
** ... 460 like lines cut
*Element, type=C3D8R
  1,  17,  18,  26,  25,   1,   2,  10,   9
  2,  18,  19,  27,  26,   2,   3,  11,  10
  3,  19,  20,  28,  27,   3,   4,  12,  11
  4,  20,  21,  29,  28,   4,   5,  13,  12
  5,  21,  22,  30,  29,   5,   6,  14,  13
  6,  22,  23,  31,  30,   6,   7,  15,  14
  7,  23,  24,  32,  31,   7,   8,  16,  15
  8,  33,  34,  42,  41,  17,  18,  26,  25
  9,  34,  35,  43,  42,  18,  19,  27,  26
 10,  35,  36,  44,  43,  19,  20,  28,  27
 11,  36,  37,  45,  44,  20,  21,  29,  28
 12,  37,  38,  46,  45,  21,  22,  30,  29
 13,  38,  39,  47,  46,  22,  23,  31,  30
 14,  39,  40,  48,  47,  23,  24,  32,  31
 15,  49,  50,  58,  57,  33,  34,  42,  41
 16,  50,  51,  59,  58,  34,  35,  43,  42
 17,  51,  52,  60,  59,  35,  36,  44,  43
 18,  52,  53,  61,  60,  36,  37,  45,  44
 19,  53,  54,  62,  61,  37,  38,  46,  45
 20,  54,  55,  63,  62,  38,  39,  47,  46
** ... 183 like lines cut
*Nset, nset=Part-1-1_Set-2, generate
   1,  480,    1
*Elset, elset=Part-1-1_Set-2, generate
   1,  203,    1
** Section: Section-1
*Solid Section, elset=Part-1-1_Set-2, material=Material-1
,
*System
*Nset, nset=Set-1
   1,   2,   3,   4,   5,   6,   7,   8,   9,  10,  11,  12,  13,  14,  15,  16
  17,  24,  25,  32,  33,  40,  41,  48,  49,  56,  57,  64,  65,  72,  73,  80
  81,  88,  89,  96,  97, 104, 105, 112, 113, 120, 121, 128, 129, 136, 137, 144
 145, 152, 153, 160, 161, 168, 169, 176, 177, 184, 185, 192, 193, 200, 201, 208
 209, 216, 217, 224, 225, 232, 233, 240, 241, 248, 249, 256, 257, 264, 265, 272
 273, 280, 281, 288, 289, 296, 297, 304, 305, 312, 313, 320, 321, 328, 329, 336
 337, 344, 345, 352, 353, 360, 361, 368, 369, 376, 377, 384, 385, 392, 393, 400
 401, 408, 409, 416, 417, 424, 425, 432, 433, 440, 441, 448, 449, 456, 457, 464
 465, 466, 467, 468, 469, 470, 471, 472, 473, 474, 475, 476, 477, 478, 479, 480
*Elset, elset=Set-1
   1,   2,   3,   4,   5,   6,   7,   8,  14,  15,  21,  22,  28,  29,  35,  36
  42,  43,  49,  50,  56,  57,  63,  64,  70,  71,  77,  78,  84,  85,  91,  92
  98,  99, 105, 106, 112, 113, 119, 120, 126, 127, 133, 134, 140, 141, 147, 148
 154, 155, 161, 162, 168, 169, 175, 176, 182, 183, 189, 190, 196, 197, 198, 199
 200, 201, 202, 203
*Nset, nset=Set-2, generate
   1,  480,    1
*Elset, elset=Set-2, generate
   1,  203,    1
*Nset, nset=Set-3, generate
   1,  480,    1
*Elset, elset=Set-3, generate
   1,  203,    1
*Nset, nset=Set-4, generate
   1,  480,    1
*Elset, elset=Set-4, generate
   1,  203,    1
*Nset, nset=Set-5
   1,   2,   3,   4,   5,   6,   7,   8,   9,  10,  11,  12,  13,  14,  15,  16
  17,  24,  25,  32,  33,  40,  41,  48,  49,  56,  57,  64,  65,  72,  73,  80
  81,  88,  89,  96,  97, 104, 105, 112, 113, 120, 121, 128, 129, 136, 137, 144
 145, 152, 153, 160, 161, 168, 169, 176, 177, 184, 185, 192, 193, 200, 201, 208
 209, 216, 217, 224, 225, 232, 233, 240, 241, 248, 249, 256, 257, 264, 265, 272
 273, 280, 281, 288, 289, 296, 297, 304, 305, 312, 313, 320, 321, 328, 329, 336
 337, 344, 345, 352, 353, 360, 361, 368, 369, 376, 377, 384, 385, 392, 393, 400
 401, 408, 409, 416, 417, 424, 425, 432, 433, 440, 441, 448, 449, 456, 457, 464
 465, 466, 467, 468, 469, 470, 471, 472, 473, 474, 475, 476, 477, 478, 479, 480
*Elset, elset=Set-5
   1,   2,   3,   4,   5,   6,   7,   8,  14,  15,  21,  22,  28,  29,  35,  36
  42,  43,  49,  50,  56,  57,  63,  64,  70,  71,  77,  78,  84,  85,  91,  92
  98,  99, 105, 106, 112, 113, 119, 120, 126, 127, 133, 134, 140, 141, 147, 148
 154, 155, 161, 162, 168, 169, 175, 176, 182, 183, 189, 190, 196, 197, 198, 199
 200, 201, 202, 203
*Nset, nset=Set-6, generate
   1,  480,    1
*Elset, elset=Set-6, generate
   1,  203,    1
** 
** MATERIALS
** 
*Material, name=Material-1
*Density
10.,
*Elastic
270000., 0.3
** ----------------------------------------------------------------
** 
** STEP: Step-1
** 
*Step, name=Step-1, nlgeom=NO
*Static
1., 1., 1e-05, 1.
** 
** BOUNDARY CONDITIONS
** 
** Name: BC-1 Type: Displacement/Rotation
*Boundary
Set-5, 1, 1
Set-5, 2, 2
Set-5, 3, 3
** 
** LOADS
** 
** Name: Load-1   Type: Body force
*Dload
Set-6, BY, 1.
** 
** OUTPUT REQUESTS
** 
*Restart, write, frequency=0
** 
** FIELD OUTPUT: F-Output-1
** 
*Output, field
*Node Output
CF, RF, U
*Element Output, directions=YES
ELEDEN, ELEN, ENER, LE, PE, PEEQ, PEMAG, S
*Contact Output
CDISP, CSTRESS
** 
** HISTORY OUTPUT: H-Output-1
** 
*Output, history, variable=PRESELECT
*End Step
