** written by FreeCAD inp file writer for CalculiX,Abaqus meshes
** highest dimension mesh elements only.

** Nodes
*Node, NSET=Nall
1, 0.9018840193748, -15.83340835571, -0.00188600004185
2, 1.002446055412, -15.83340835571, -0.0008399999933317
3, 0.9018840193748, -13.83340835571, -0.00188600004185
4, 1.002446055412, -13.83340835571, -0.0008399999933317
5, -0.0001559999946039, -13.83340930939, 1.000597953796
6, -0.0001570000022184, -15.83340930939, 1.000597000122
7, -1.007295012474, -15.83340835571, 0.001730000018142
8, -1.0072940588, -13.83340835571, 0.001730000018142
9, -0.9072189927101, -13.83340835571, 0.004313000012189
10, -0.9072189927101, -15.83340835571, 0.004313000012189
11, -0.001400999957696, -15.83340835571, 0.8996959924698
12, -0.001400999957696, -13.83340835571, 0.8996959924698
13, 1.002446055412, -15.55340835571, -0.0008399999933317
14, 1.002446055412, -15.27340835571, -0.0008399999933317
15, 1.002446055412, -14.99340835571, -0.0008399999933317
16, 1.002446055412, -14.68940835571, -0.0008399999933317
17, 1.002446055412, -14.39140835571, -0.0008399999933317
18, 1.002446055412, -14.11140835571, -0.0008399999933317
19, 0.9883673703671, -14.11340835571, -0.0009864400001243
20, 0.9742886853218, -14.39340835571, -0.001132880006917
** ... 184 like lines cut


** Volume elements
*Element, TYPE=C3D4, ELSET=Evolumes
546, 190, 126, 39, 193
547, 39, 35, 38, 189
548, 22, 29, 23, 171
549, 156, 67, 175, 181
550, 67, 172, 148, 179
551, 166, 170, 152, 153
552, 20, 27, 21, 172
553, 95, 69, 176, 94
554, 145, 178, 28, 27
555, 26, 19, 179, 20
556, 178, 172, 21, 27
557, 188, 191, 192, 132
558, 47, 46, 135, 125
559, 161, 158, 71, 169
560, 76, 59, 137, 60
561, 12, 37, 125, 31
562, 36, 37, 190, 40
563, 190, 31, 37, 32
564, 191, 129, 130, 132
565, 52, 113, 114, 10
** ... 515 like lines cut

** Define element set Eall
*ELSET, ELSET=Eall
Evolumes



***********************************************************
** Element sets for materials and FEM element type (solid, shell, beam, fluid)
** written by write_element_sets_material_and_femelement_type function
*ELSET,ELSET=SolidMaterialSolid
Evolumes

***********************************************************
** Node sets for fixed constraint
** written by write_node_sets_constraints_fixed function
** FemConstraintFixed
*NSET,NSET=FemConstraintFixed
1,
2,
3,
4,
5,
6,
7,
8,
9,
10,
11,
12,
13,
14,
15,
16,
17,
18,
19,
20,
** ... 70 like lines cut

***********************************************************
** Materials
** written by write_materials function
** Young's modulus unit is MPa = N/mm2
** FreeCAD material name: CalculiX-Steel
** SolidMaterial
*MATERIAL, NAME=SolidMaterial
*ELASTIC
210000, 0.300
*Conductivity
245.,
***********************************************************
** Sections
** written by write_femelementsets function
*SOLID SECTION, ELSET=SolidMaterialSolid, MATERIAL=SolidMaterial

***********************************************************
** At least one step is needed to run an CalculiX analysis of FreeCAD
** written by write_step_begin function
*STEP
*Heat Transfer, steady state, deltmx=0.
1., 1., 1e-05, 1.,

***********************************************************
** Fixed Constraints
** written by write_constraints_fixed function
** FemConstraintFixed
*BOUNDARY
FemConstraintFixed,11,11,0
FemConstraintFixed,11,11,0
FemConstraintFixed,11,11,0
** Node loads
** written by write_constraints_force function
*Dflux
Evolumes, BF, -1.0


***********************************************************
** written by write_step_end function
*END STEP 

***********************************************************
** CalculiX Input file
** written by write_footer function
**   written by    --> FreeCAD 0.17.13522 (Git)
**   written on    --> Sat Jun 23 21:43:35 2018
**   file name     --> 
**   analysis name --> Analysis
**
**
**
**   Units
**
**   Geometry (mesh data)        --> mm
**   Materials (Young's modulus) --> N/mm2 = MPa
**   Loads (nodal loads)         --> N
**
