** written by FreeCAD inp file writer for CalculiX,Abaqus meshes
** highest dimension mesh elements only.

** Nodes
*Node, NSET=Nall
1, 0.9018840193748, -15.83340835571, -0.00188600004185
2, 1.002446055412, -15.83340835571, -0.0008399999933317
3, 0.9018840193748, -13.83340835571, -0.00188600004185
4, 1.002446055412, -13.83340835571, -0.0008399999933317
5, -0.0001559999946039, -13.83340930939, 1.000597953796
6, -0.0001570000022184, -15.83340930939, 1.000597000122
7, -1.007295012474, -15.83340835571, 0.001730000018142
8, -1.0072940588, -13.83340835571, 0.001730000018142
9, -0.9072189927101, -13.83340835571, 0.004313000012189
10, -0.9072189927101, -15.83340835571, 0.004313000012189
11, -0.001400999957696, -15.83340835571, 0.8996959924698
12, -0.001400999957696, -13.83340835571, 0.8996959924698
13, 1.002446055412, -15.74340835571, -0.0008399999933317
14, 1.002446055412, -15.64140835571, -0.0008399999933317
15, 1.002446055412, -15.53940835571, -0.0008399999933317
16, 1.002446055412, -15.43740835571, -0.0008399999933317
17, 1.002446055412, -15.33540835571, -0.0008399999933317
18, 1.002446055412, -15.23340835571, -0.0008399999933317
19, 1.002446055412, -15.13340835571, -0.0008399999933317
20, 1.002446055412, -15.03140835571, -0.0008399999933317
** ... 1787 like lines cut


** Volume elements
*Element, TYPE=C3D4, ELSET=Evolumes
4108, 1714, 826, 805, 1773
4109, 595, 639, 638, 1556
4110, 1350, 1406, 1405, 1129
4111, 291, 173, 679, 174
4112, 317, 1142, 853, 318
4113, 1794, 834, 1784, 828
4114, 861, 1178, 308, 862
4115, 861, 1178, 862, 915
4116, 1147, 306, 338, 307
4117, 864, 226, 1315, 52
4118, 349, 991, 987, 1152
4119, 540, 592, 1571, 600
4120, 1328, 1329, 392, 387
4121, 1391, 1336, 901, 1335
4122, 1392, 901, 847, 1391
4123, 1400, 237, 1028, 1401
4124, 553, 1508, 552, 494
4125, 350, 991, 971, 987
4126, 347, 943, 937, 967
4127, 1794, 834, 835, 1789
** ... 5182 like lines cut

** Define element set Eall
*ELSET, ELSET=Eall
Evolumes



***********************************************************
** Element sets for materials and FEM element type (solid, shell, beam, fluid)
** written by write_element_sets_material_and_femelement_type function
*ELSET,ELSET=SolidMaterialSolid
Evolumes

***********************************************************
** Node sets for fixed constraint
** written by write_node_sets_constraints_fixed function
** FemConstraintFixed
*NSET,NSET=FemConstraintFixed
1,
2,
3,
4,
5,
6,
7,
8,
9,
10,
11,
12,
13,
14,
15,
16,
17,
18,
19,
20,
** ... 310 like lines cut

***********************************************************
** Materials
** written by write_materials function
** Young's modulus unit is MPa = N/mm2
** FreeCAD material name: CalculiX-Steel
** SolidMaterial
*MATERIAL, NAME=SolidMaterial
*ELASTIC
210000, 0.300

***********************************************************
** Sections
** written by write_femelementsets function
*SOLID SECTION, ELSET=SolidMaterialSolid, MATERIAL=SolidMaterial

***********************************************************
** At least one step is needed to run an CalculiX analysis of FreeCAD
** written by write_step_begin function
*STEP
*STATIC


***********************************************************
** Fixed Constraints
** written by write_constraints_fixed function
** FemConstraintFixed
*BOUNDARY
FemConstraintFixed,1
FemConstraintFixed,2
FemConstraintFixed,3


***********************************************************
** Element + CalculiX face + load in [MPa]
** written by write_constraints_pressure function
** FemConstraintPressure
*DLOAD
** FemConstraintPressure: face load
4109,P1,1000.0
4110,P1,1000.0
4111,P3,1000.0
4119,P2,1000.0
4120,P2,1000.0
4121,P2,1000.0
4124,P4,1000.0
4129,P3,1000.0
4132,P3,1000.0
4133,P1,1000.0
4144,P3,1000.0
4145,P1,1000.0
4147,P3,1000.0
4149,P3,1000.0
4152,P2,1000.0
4156,P3,1000.0
4161,P1,1000.0
4163,P4,1000.0
4165,P3,1000.0
4167,P3,1000.0
** ... 1776 like lines cut

***********************************************************
** Outputs --> frd file
** written by write_outputs_types function
*NODE FILE
U
*EL FILE
S, E
** outputs --> dat file
*NODE PRINT , NSET=Nall
U 
*EL PRINT , ELSET=Eall
S 

***********************************************************
** written by write_step_end function
*END STEP 

***********************************************************
** CalculiX Input file
** written by write_footer function
**   written by    --> FreeCAD 0.17.13522 (Git)
**   written on    --> Sat Jun 23 21:44:11 2018
**   file name     --> 
**   analysis name --> Analysis
**
**
**
**   Units
**
**   Geometry (mesh data)        --> mm
**   Materials (Young's modulus) --> N/mm2 = MPa
**   Loads (nodal loads)         --> N
**
