** written by FreeCAD inp file writer for CalculiX,Abaqus meshes
** highest dimension mesh elements only.

** Nodes
*Node, NSET=Nall
1, 5.10552406311, 0.999998986721, 1
2, -1, 1, 1
3, -1, -1, 1
4, 5.105523109436, -1.000000953674, 1
5, 5.007047868544, 0.9999990030642, 1
6, 4.908571673978, 0.9999990194075, 1
7, 4.810095479411, 0.9999990357507, 1
8, 4.711619284845, 0.9999990520939, 1
9, 4.613143090279, 0.9999990684371, 1
10, 4.514666895713, 0.9999990847803, 1
11, 4.416190701146, 0.9999991011235, 1
12, 4.31771450658, 0.9999991174667, 1
13, 4.219238312014, 0.9999991338099, 1
14, 4.120762117447, 0.9999991501531, 1
15, 4.022285922881, 0.9999991664963, 1
16, 3.923809728315, 0.9999991828395, 1
17, 3.825333533749, 0.9999991991828, 1
18, 3.726857339182, 0.999999215526, 1
19, 3.628381144616, 0.9999992318692, 1
20, 3.52990495005, 0.9999992482124, 1
** ... 6741 like lines cut


** Face elements
*Element, TYPE=S6, ELSET=Efaces
230, 1097, 541, 743, 1210, 1211, 1212
231, 689, 1097, 743, 1213, 1212, 1214
232, 581, 748, 909, 1215, 1216, 1217
233, 1019, 749, 579, 1218, 1219, 1220
234, 685, 749, 1019, 1221, 1218, 1222
235, 748, 1046, 909, 1223, 1224, 1216
236, 651, 968, 729, 1225, 1226, 1227
237, 968, 517, 729, 1228, 1229, 1226
238, 929, 540, 755, 1230, 1231, 1232
239, 791, 540, 929, 1233, 1230, 1234
240, 1126, 569, 627, 1235, 1236, 1237
241, 63, 644, 858, 1238, 1239, 1240
242, 52, 53, 664, 114, 1241, 1242
243, 11, 12, 660, 73, 1243, 1244
244, 786, 964, 621, 1245, 1246, 1247
245, 551, 829, 1015, 1248, 1249, 1250
246, 1012, 915, 556, 1251, 1252, 1253
247, 500, 1029, 842, 1254, 1255, 1256
248, 524, 884, 646, 1257, 1258, 1259
249, 627, 569, 823, 1236, 1260, 1261
** ... 3278 like lines cut

** Define element set Eall
*ELSET, ELSET=Eall
Efaces



***********************************************************
** Element sets for materials and FEM element type (solid, shell, beam, fluid)
** written by write_element_sets_material_and_femelement_type function
*ELSET,ELSET=SolidMaterialElementGeometry2D
Efaces

***********************************************************
** Node sets for fixed constraint
** written by write_node_sets_constraints_fixed function
** FemConstraintFixed
*NSET,NSET=FemConstraintFixed
128,
129,
2,
3,
132,
133,
134,
135,
136,
137,
138,
139,
140,
130,
142,
143,
144,
145,
146,
131,
** ... 21 like lines cut

***********************************************************
** Materials
** written by write_materials function
** Young's modulus unit is MPa = N/mm2
** FreeCAD material name: CalculiX-Steel
** SolidMaterial
*MATERIAL, NAME=SolidMaterial
*ELASTIC
210000, 0.300

***********************************************************
** Sections
** written by write_femelementsets function
*SHELL SECTION, ELSET=SolidMaterialElementGeometry2D, MATERIAL=SolidMaterial
1 

***********************************************************
** At least one step is needed to run an CalculiX analysis of FreeCAD
** written by write_step_begin function
*STEP
*STATIC


***********************************************************
** Fixed Constraints
** written by write_constraints_fixed function
** FemConstraintFixed
*BOUNDARY
FemConstraintFixed,1
FemConstraintFixed,2
FemConstraintFixed,3
FemConstraintFixed,4
FemConstraintFixed,5
FemConstraintFixed,6


***********************************************************
** Node loads Constraints
** written by write_constraints_force function
*CLOAD
** FemConstraintForce
** node loads on shape: untitled001:Face2
1,3,0.0000000000000E+00
3,3,0.0000000000000E+00
4,3,0.0000000000000E+00
167,3,0.0000000000000E+00
168,3,0.0000000000000E+00
169,3,0.0000000000000E+00
170,3,0.0000000000000E+00
171,3,0.0000000000000E+00
172,3,0.0000000000000E+00
173,3,0.0000000000000E+00
174,3,0.0000000000000E+00
175,3,0.0000000000000E+00
176,3,0.0000000000000E+00
177,3,0.0000000000000E+00
178,3,0.0000000000000E+00
179,3,0.0000000000000E+00
180,3,0.0000000000000E+00
181,3,0.0000000000000E+00
182,3,0.0000000000000E+00
183,3,0.0000000000000E+00
** ... 3426 like lines cut

** node loads on shape: untitled001:Face1
1,3,0.0000000000000E+00
2,3,0.0000000000000E+00
3,3,0.0000000000000E+00
5,3,0.0000000000000E+00
6,3,0.0000000000000E+00
7,3,0.0000000000000E+00
8,3,0.0000000000000E+00
9,3,0.0000000000000E+00
10,3,0.0000000000000E+00
11,3,0.0000000000000E+00
12,3,0.0000000000000E+00
13,3,0.0000000000000E+00
14,3,0.0000000000000E+00
15,3,0.0000000000000E+00
16,3,0.0000000000000E+00
17,3,0.0000000000000E+00
18,3,0.0000000000000E+00
19,3,0.0000000000000E+00
20,3,0.0000000000000E+00
21,3,0.0000000000000E+00
** ... 3426 like lines cut



***********************************************************
** Outputs --> frd file
** written by write_outputs_types function
*NODE FILE, OUTPUT=2d
U
*EL FILE
S, E
** outputs --> dat file
*NODE PRINT , NSET=Nall
U 
*EL PRINT , ELSET=Eall
S 

***********************************************************
** written by write_step_end function
*END STEP 

***********************************************************
** CalculiX Input file
** written by write_footer function
**   written by    --> FreeCAD 0.17.13522 (Git)
**   written on    --> Mon Jul 30 14:32:30 2018
**   file name     --> 
**   analysis name --> Analysis
**
**
**
**   Units
**
**   Geometry (mesh data)        --> mm
**   Materials (Young's modulus) --> N/mm2 = MPa
**   Loads (nodal loads)         --> N
**
