*Heading
 C:\Users\Denk\Desktop\StructuredMesh
*NODE
1, -1, -1, 0
2, 0, -1, 0
3, 0, -0.5, 0
4, -1, -0.5, 0
5, -0.99218750000001, -1, 0
6, -0.98437500000001, -1, 0
7, -0.97656250000001, -1, 0
8, -0.96875000000002, -1, 0
9, -0.96093750000002, -1, 0
10, -0.95312500000002, -1, 0
11, -0.94531250000003, -1, 0
12, -0.93750000000003, -1, 0
13, -0.92968750000004, -1, 0
14, -0.92187500000004, -1, 0
15, -0.91406250000004, -1, 0
16, -0.90625000000004, -1, 0
17, -0.89843750000003, -1, 0
18, -0.89062500000003, -1, 0
19, -0.88281250000003, -1, 0
20, -0.87500000000003, -1, 0
** ... 22203 like lines cut
*ELEMENT, type=S4, ELSET=Surface1
260620, 1584, 4047, 14902, 4049
260621, 4047, 1725, 4048, 14902
260622, 4049, 14902, 4048, 3121
260623, 4036, 4050, 14903, 4052
260624, 4050, 1781, 4051, 14903
260625, 4052, 14903, 4051, 1600
260626, 4035, 4053, 14904, 4055
260627, 4053, 1780, 4054, 14904
260628, 4055, 14904, 4054, 1601
260629, 831, 4056, 14905, 4058
260630, 4056, 3719, 4057, 14905
260631, 4058, 14905, 4057, 1618
260632, 1502, 4059, 14906, 4061
260633, 4059, 1755, 4060, 14906
260634, 4061, 14906, 4060, 3015
260635, 3015, 4060, 14907, 4063
260636, 4060, 1755, 4062, 14907
260637, 4063, 14907, 4062, 1126
260638, 3719, 4064, 14908, 4057
260639, 4064, 1715, 4065, 14908
** ... 21946 like lines cut

*NSET,NSET=BoundarySET
390, 386, 388, 410, 448, 458, 432, 414, 436, 484, 
486, 396, 422, 470, 402, 428, 464, 482, 488, 406, 
408, 420, 430, 474, 466, 490, 492, 496, 438, 498, 
500, 472, 400, 392, 418, 426, 502, 504, 508, 468, 
510, 412, 512, 476, 394, 442, 506, 456, 444, 454, 
446, 398, 424, 450, 452, 416, 440, 404, 460, 478, 
462, 434, 480, 494, 405, 437, 453, 469, 485, 493, 
389, 429, 501, 445, 461, 397, 421, 509, 477, 413, 
4, 1, 481, 449, 417, 433, 465, 401, 497, 409, 
425, 441, 457, 473, 489, 505, 393, 407, 411, 443, 
415, 391, 395, 403, 423, 439, 447, 451, 387, 399, 
419, 455, 459, 427, 463, 431, 467, 435, 487, 471, 
507, 483, 491, 495, 475, 511, 499, 503, 479, 

*ELSET,ELSET=Load
2, 



* SolidMaterial
*MATERIAL, NAME=SolidMaterial
*ELASTIC
210000, 0.300

***********************************************************
** Sections
** written by write_femelementsets function
*SHELL SECTION, ELSET=SolidMaterialElementGeometry2D, MATERIAL=SolidMaterial
1 

***********************************************************
** At least one step is needed to run an CalculiX analysis of FreeCAD
** written by write_step_begin function
*STEP
*STATIC
*BOUNDARY
BoundarySET, 1
BoundarySET, 2
BoundarySET, 3
*CLOAD
131, 2, 100

***********************************************************
** Outputs --> frd file
** written by write_outputs_types function
*NODE FILE, OUTPUT=2d
U
*EL FILE
S, E
** outputs --> dat file
*NODE PRINT , NSET=Nall
U 
*EL PRINT , ELSET=Eall
S 


*END STEP


