** written by FreeCAD inp file writer for CalculiX,Abaqus meshes
** highest dimension mesh elements only.

** Nodes
*Node, NSET=Nall
1, -18.73141025641, 0.975, 0.05
2, -18.00641025641, 0.975, 0.05
3, -18.73141025641, 0.25, 0.05
4, -18.00641025641, 0.25, 0.05
5, -18.00641025641, 1.225, 0.05
6, -18.00641025641, 1.95, 0.05
7, -18.73141025641, 1.225, 0.05
8, -18.73141025641, 1.95, 0.05
9, -19, 1.225, 0.05
10, -19, 1.95, 0.05
11, -19.725, 1.225, 0.05
12, -19.725, 1.95, 0.05
13, -19.725, 0.975, 0.05
14, -19, 0.975, 0.05
15, -19.725, 0.25, 0.05
16, -19, 0.25, 0.05
17, -19, 2.2, 0.05
18, -19, 2.925, 0.05
19, -19.725, 2.2, 0.05
20, -19.725, 2.925, 0.05
** ... 26705 like lines cut


** Volume elements
*Element, TYPE=C3D4, ELSET=Evolumes
73789, 8042, 19720, 8047, 8046
73790, 16149, 14081, 14082, 16400
73791, 19934, 7106, 19935, 26218
73792, 19340, 23618, 9585, 25874
73793, 8124, 19733, 23865, 19725
73794, 23608, 25866, 9637, 21553
73795, 22966, 18520, 25321, 12473
73796, 19066, 6030, 19065, 23399
73797, 19934, 19935, 7106, 7110
73798, 7973, 23859, 19717, 596
73799, 9630, 9626, 9631, 17275
73800, 7330, 7335, 23009, 7331
73801, 7335, 25362, 23009, 7331
73802, 9632, 21948, 17274, 19332
73803, 12364, 1146, 23010, 2746
73804, 19341, 25875, 23619, 9587
73805, 11787, 18716, 23115, 25454
73806, 23407, 21458, 6088, 25684
73807, 6103, 26344, 6100, 21757
73808, 24713, 17605, 15652, 15651
** ... 57157 like lines cut

** Define element set Eall
*ELSET, ELSET=Eall
Evolumes



***********************************************************
** Element sets for materials and FEM element type (solid, shell, beam, fluid)
** written by write_element_sets_material_and_femelement_type function
*ELSET,ELSET=SolidMaterialSolid
Evolumes

***********************************************************
** Node sets for fixed constraint
** written by write_node_sets_constraints_fixed function
** FemConstraintFixed
*NSET,NSET=FemConstraintFixed
3201,
3202,
3205,
3206,
17199,
17200,
17201,
17202,
17203,
17204,
17205,
17206,
17207,
17208,
17209,
17210,
17211,
17212,
17213,
17214,
** ... 108 like lines cut

***********************************************************
** Materials
** written by write_materials function
** Young's modulus unit is MPa = N/mm2
** Density's unit is t/mm^3
** FreeCAD material name: CalculiX-Steel
** SolidMaterial
*MATERIAL, NAME=SolidMaterial
*ELASTIC
210000, 0.300
*DENSITY
7.900e-09

***********************************************************
** Sections
** written by write_femelementsets function
*SOLID SECTION, ELSET=SolidMaterialSolid, MATERIAL=SolidMaterial

***********************************************************
** At least one step is needed to run an CalculiX analysis of FreeCAD
** written by write_step_begin function
*STEP
*STATIC


***********************************************************
** Fixed Constraints
** written by write_constraints_fixed function
** FemConstraintFixed
*BOUNDARY
FemConstraintFixed,1
FemConstraintFixed,2
FemConstraintFixed,3


***********************************************************
** Self weight Constraint
** written by write_constraints_selfweight function
** ConstraintSelfWeight
*DLOAD
Eall,GRAV,9810,0.0,0.0,-100.0


***********************************************************
** Outputs --> frd file
** written by write_outputs_types function
*NODE FILE
U
*EL FILE
S, E
** outputs --> dat file
*NODE PRINT , NSET=Nall
U 
*EL PRINT , ELSET=Eall
S 

***********************************************************
** written by write_step_end function
*END STEP 

***********************************************************
** CalculiX Input file
** written by write_footer function
**   written by    --> FreeCAD 0.17.13541 (Git)
**   written on    --> Tue Jan 08 08:55:41 2019
**   file name     --> RectangleGridStructure.FCStd
**   analysis name --> Analysis
**
**
**
**   Units
**
**   Geometry (mesh data)        --> mm
**   Materials (Young's modulus) --> N/mm2 = MPa
**   Loads (nodal loads)         --> N
**
