** written by FreeCAD inp file writer for CalculiX,Abaqus meshes
** highest dimension mesh elements only.

** Nodes
*Node, NSET=Nall
1, -10.42732612768, 0, 0
2, -10.42732612768, -20, 1.33226762955e-014
3, -9.927326127676, 0, 0
4, -9.927326127676, -20, 1.33226762955e-014
5, 0, 5.995204332976e-015, 9
6, 0, -20, 9
7, 9.927326127676, 0, 0
8, 9.927326127676, -20, 1.33226762955e-014
9, 10.42732612768, 0, 0
10, 10.42732612768, -20, 1.33226762955e-014
11, 0, 6.297158970905e-015, 9.453294264954
12, 0, -20, 9.453294264954
13, -10.42732612768, -0.5, 3.330669073875e-016
14, -10.42732612768, -1, 6.661338147751e-016
15, -10.42732612768, -1.5, 9.992007221626e-016
16, -10.42732612768, -2, 1.33226762955e-015
17, -10.42732612768, -2.5, 1.665334536938e-015
18, -10.42732612768, -3, 1.998401444325e-015
19, -10.42732612768, -3.5, 2.331468351713e-015
20, -10.42732612768, -4, 2.6645352591e-015
** ... 37045 like lines cut


** Volume elements
*Element, TYPE=C3D10, ELSET=Evolumes
12887, 969, 50, 19362, 49, 1088, 19910, 24839, 1087, 89, 19911
12888, 580, 579, 12294, 13502, 619, 12492, 12491, 14051, 14050, 24840
12889, 949, 29, 30, 18805, 1027, 69, 1028, 24841, 19849, 19848
12890, 12274, 559, 12944, 560, 12452, 13988, 24842, 12451, 599, 13989
12891, 14, 19487, 15, 934, 19798, 19801, 54, 982, 24843, 983
12892, 12259, 13629, 545, 544, 24844, 13941, 12421, 12422, 13939, 584
12893, 969, 19362, 18853, 49, 24839, 19914, 24845, 1087, 19911, 19913
12894, 579, 12995, 12294, 13502, 14053, 24846, 12492, 14050, 14054, 24840
12895, 934, 19487, 15, 18829, 24843, 19801, 983, 24847, 19806, 19805
12896, 12969, 13629, 545, 12259, 13946, 13941, 13944, 24848, 24844, 12421
12897, 962, 43, 18983, 42, 1067, 19887, 24849, 1066, 82, 19888
12898, 573, 572, 12287, 13125, 612, 12478, 12477, 14028, 14027, 24850
12899, 564, 13076, 563, 12278, 14001, 14000, 603, 12459, 24851, 12460
12900, 18935, 953, 34, 33, 24852, 1040, 19860, 19861, 1039, 73
12901, 47, 966, 46, 18790, 1079, 1078, 86, 19901, 24853, 19902
12902, 12931, 12291, 576, 577, 24854, 12486, 14041, 14042, 12485, 616
12903, 19621, 24549, 2173, 19145, 24857, 24855, 24856, 20161, 24858, 24859
12904, 7247, 13409, 24559, 7767, 24862, 24860, 24861, 8487, 24863, 24864
12905, 1691, 2218, 24558, 19265, 2861, 24865, 24866, 24868, 24867, 24869
12906, 958, 38, 39, 18956, 1054, 78, 1055, 24870, 19876, 19875
** ... 18415 like lines cut

** Define element set Eall
*ELSET, ELSET=Eall
Evolumes



***********************************************************
** Element sets for materials and FEM element type (solid, shell, beam, fluid)
** written by write_element_sets_material_and_femelement_type function
*ELSET,ELSET=SolidMaterialSolid
Evolumes

***********************************************************
** Node sets for fixed constraint
** written by write_node_sets_constraints_fixed function
** FemConstraintFixed
*NSET,NSET=FemConstraintFixed
24576,
24577,
2,
24579,
4,
24581,
6,
24583,
8,
24585,
10,
24587,
12,
24578,
24590,
24591,
24592,
24593,
24594,
24595,
** ... 1852 like lines cut

***********************************************************
** Materials
** written by write_materials function
** Young's modulus unit is MPa = N/mm2
** Density's unit is t/mm^3
** FreeCAD material name: CalculiX-Steel
** SolidMaterial
*MATERIAL, NAME=SolidMaterial
*ELASTIC
210000, 0.300
*DENSITY
7.900e-09

***********************************************************
** Sections
** written by write_femelementsets function
*SOLID SECTION, ELSET=SolidMaterialSolid, MATERIAL=SolidMaterial

***********************************************************
** At least one step is needed to run an CalculiX analysis of FreeCAD
** written by write_step_begin function
*STEP
*STATIC


***********************************************************
** Fixed Constraints
** written by write_constraints_fixed function
** FemConstraintFixed
*BOUNDARY
FemConstraintFixed,1
FemConstraintFixed,2
FemConstraintFixed,3


***********************************************************
** Self weight Constraint
** written by write_constraints_selfweight function
** ConstraintSelfWeight
*DLOAD
Eall,GRAV,9810,0.0,0.0,-1.0


***********************************************************
** Outputs --> frd file
** written by write_outputs_types function
*NODE FILE
U
*EL FILE
S, E
** outputs --> dat file
*NODE PRINT , NSET=Nall
U 
*EL PRINT , ELSET=Eall
S 

***********************************************************
** written by write_step_end function
*END STEP 

***********************************************************
** CalculiX Input file
** written by write_footer function
**   written by    --> FreeCAD 0.17.13541 (Git)
**   written on    --> Tue Jan 22 13:54:20 2019
**   file name     --> 
**   analysis name --> Analysis
**
**
**
**   Units
**
**   Geometry (mesh data)        --> mm
**   Materials (Young's modulus) --> N/mm2 = MPa
**   Loads (nodal loads)         --> N
**
