** written by FreeCAD inp file writer for CalculiX,Abaqus meshes
** highest dimension mesh elements only.

** Nodes
*Node, NSET=Nall
1, 30, 0.1, 0
2, 30, 0.1, 10
3, 30, 0, 0
4, 30, 0, 10
5, 0, 0.1, 0
6, 0, 0.1, 10
7, 0, 0, 0
8, 0, 0, 10
9, 0.12, 0.1, 10
10, 0.21, 0.1, 10
11, 0.3, 0.1, 10
12, 0.42, 0.1, 10
13, 0.51, 0.1, 10
14, 0.6, 0.1, 10
15, 0.72, 0.1, 10
16, 0.81, 0.1, 10
17, 0.9, 0.1, 10
18, 1.02, 0.1, 10
19, 1.11, 0.1, 10
20, 1.23, 0.1, 10
** ... 12325 like lines cut


** Volume elements
*Element, TYPE=C3D4, ELSET=Evolumes
26199, 10126, 4394, 9992, 10343
26200, 471, 7529, 2155, 472
26201, 11012, 6026, 10988, 10830
26202, 11298, 5416, 11215, 11050
26203, 7560, 2170, 502, 205
26204, 9085, 3169, 9419, 8748
26205, 6568, 11839, 6464, 11986
26206, 4720, 9856, 4289, 10125
26207, 4324, 10154, 4619, 4504
26208, 3661, 9533, 3902, 4037
26209, 2363, 8886, 8024, 2364
26210, 4215, 4068, 9671, 3660
26211, 7999, 2327, 2326, 7998
26212, 3472, 3471, 9163, 9559
26213, 3471, 3472, 3923, 9559
26214, 1270, 7669, 1271, 1440
26215, 2690, 9043, 8742, 8339
26216, 9554, 8839, 4022, 9570
26217, 2674, 2819, 8738, 8313
26218, 2182, 7584, 229, 7583
** ... 34770 like lines cut

** Define element set Eall
*ELSET, ELSET=Eall
Evolumes



***********************************************************
** Element sets for materials and FEM element type (solid, shell, beam, fluid)
** written by write_element_sets_material_and_femelement_type function
*ELSET,ELSET=SolidMaterialSolid
Evolumes

***********************************************************
** Node sets for fixed constraint
** written by write_node_sets_constraints_fixed function
** FemConstraintFixed
*NSET,NSET=FemConstraintFixed
1,
2,
3,
4,
1197,
1198,
1199,
1200,
1201,
1202,
1203,
1204,
1205,
1206,
1207,
1208,
1209,
1210,
1211,
1212,
** ... 150 like lines cut

***********************************************************
** Materials
** written by write_materials function
** Young's modulus unit is MPa = N/mm2
** FreeCAD material name: CalculiX-Steel
** SolidMaterial
*MATERIAL, NAME=SolidMaterial
*ELASTIC
210000, 0.300

***********************************************************
** Sections
** written by write_femelementsets function
*SOLID SECTION, ELSET=SolidMaterialSolid, MATERIAL=SolidMaterial

***********************************************************
** At least one step is needed to run an CalculiX analysis of FreeCAD
** written by write_step_begin function
*STEP
*STATIC


***********************************************************
** Fixed Constraints
** written by write_constraints_fixed function
** FemConstraintFixed
*BOUNDARY
FemConstraintFixed,1
FemConstraintFixed,2
FemConstraintFixed,3


***********************************************************
** Element + CalculiX face + load in [MPa]
** written by write_constraints_pressure function
** FemConstraintPressure
*DLOAD
** FemConstraintPressure: face load
26199,P4,1000.0
26200,P2,1000.0
26201,P4,1000.0
26202,P4,1000.0
26204,P4,1000.0
26215,P3,1000.0
26216,P2,1000.0
26220,P2,1000.0
26224,P3,1000.0
26225,P2,1000.0
26226,P4,1000.0
26227,P3,1000.0
26228,P3,1000.0
26229,P3,1000.0
26233,P4,1000.0
26235,P3,1000.0
26238,P4,1000.0
26239,P1,1000.0
26242,P4,1000.0
26243,P4,1000.0
** ... 11112 like lines cut
** FemConstraintPressure001
*DLOAD
** FemConstraintPressure001: face load
26207,P4,-1000.0
26208,P4,-1000.0
26210,P2,-1000.0
26213,P1,-1000.0
26219,P3,-1000.0
26221,P2,-1000.0
26222,P1,-1000.0
26231,P4,-1000.0
26232,P4,-1000.0
26236,P2,-1000.0
26237,P2,-1000.0
26240,P4,-1000.0
26247,P1,-1000.0
26248,P1,-1000.0
26252,P1,-1000.0
26254,P1,-1000.0
26263,P2,-1000.0
26267,P2,-1000.0
26269,P1,-1000.0
26271,P4,-1000.0
** ... 11986 like lines cut

***********************************************************
** Outputs --> frd file
** written by write_outputs_types function
*NODE FILE
U
*EL FILE
S, E
** outputs --> dat file
*NODE PRINT , NSET=Nall
U 
*EL PRINT , ELSET=Eall
S 

***********************************************************
** written by write_step_end function
*END STEP 

***********************************************************
** CalculiX Input file
** written by write_footer function
**   written by    --> FreeCAD 0.17.13522 (Git)
**   written on    --> Thu Jul 26 10:26:14 2018
**   file name     --> 
**   analysis name --> Analysis
**
**
**
**   Units
**
**   Geometry (mesh data)        --> mm
**   Materials (Young's modulus) --> N/mm2 = MPa
**   Loads (nodal loads)         --> N
**
