** written by FreeCAD inp file writer for CalculiX,Abaqus meshes
** highest dimension mesh elements only.

** Nodes
*Node, NSET=Nall
1, 0, 0, 0.1
2, 0, 0, 0
3, 0, 10, 0.1
4, 0, 10, 0
5, 50, 0, 0.1
6, 50, 0, 0
7, 50, 10, 0.1
8, 50, 10, 0
9, 0, 0, 0.05
10, 0, 0.5, 0.1
11, 0, 1, 0.1
12, 0, 1.5, 0.1
13, 0, 2, 0.1
14, 0, 2.5, 0.1
15, 0, 3, 0.1
16, 0, 3.5, 0.1
17, 0, 4, 0.1
18, 0, 4.5, 0.1
19, 0, 5, 0.1
20, 0, 5.5, 0.1
** ... 33504 like lines cut


** Volume elements
*Element, TYPE=C3D10, ELSET=Evolumes
11889, 14643, 1298, 13226, 462, 22814, 22813, 15540, 15535, 1783, 15539
11890, 4438, 3021, 1298, 263, 5335, 22815, 22816, 5330, 5334, 1775
11891, 13228, 14654, 860, 1897, 15865, 15860, 15863, 22818, 22817, 2381
11892, 4449, 1897, 3023, 661, 22820, 22819, 5660, 5655, 2374, 5659
11893, 14728, 1823, 13829, 785, 22822, 22821, 15619, 15616, 2008, 15618
11894, 4523, 586, 3624, 1823, 5412, 5414, 5413, 22823, 2005, 22824
11895, 387, 13828, 14727, 1224, 15294, 15293, 15292, 1409, 22825, 22826
11896, 3623, 188, 4522, 1224, 5089, 5087, 5088, 22827, 1406, 22828
11897, 13793, 1295, 459, 14918, 22829, 1768, 15528, 15529, 22830, 15522
11898, 3588, 260, 1295, 4713, 5323, 1760, 22831, 5324, 5317, 22832
11899, 3593, 4707, 1894, 658, 5649, 22833, 22834, 5648, 5642, 2359
11900, 14912, 1894, 857, 13798, 22835, 2366, 15848, 15854, 22836, 15852
11901, 14473, 846, 1884, 13388, 15811, 2313, 22837, 15815, 15814, 22838
11902, 4268, 3183, 1884, 647, 5610, 22839, 22840, 5607, 5609, 2310
11903, 13928, 13359, 3154, 22811, 22582, 22841, 22842, 22844, 22843, 22845
11904, 4571, 1286, 4267, 250, 22847, 22846, 5288, 5287, 1716, 5281
11905, 14776, 449, 14472, 1286, 15492, 15486, 15493, 22848, 1719, 22849
11906, 13928, 3154, 3723, 22811, 22842, 12377, 22850, 22844, 22845, 22851
11907, 14760, 13046, 4555, 22812, 20903, 22852, 22853, 22855, 22854, 22856
11908, 14290, 4085, 2841, 22812, 22858, 10700, 22857, 22860, 22859, 22861
** ... 16391 like lines cut

** Define element set Eall
*ELSET, ELSET=Eall
Evolumes



***********************************************************
** Element sets for materials and FEM element type (solid, shell, beam, fluid)
** written by write_element_sets_material_and_femelement_type function
*ELSET,ELSET=SolidMaterialSolid
Evolumes

***********************************************************
** Node sets for fixed constraint
** written by write_node_sets_constraints_fixed function
** FemConstraintFixed
*NSET,NSET=FemConstraintFixed
1,
2,
3,
4,
9,
10,
11,
12,
13,
14,
15,
16,
17,
18,
19,
20,
21,
22,
23,
24,
** ... 183 like lines cut

***********************************************************
** Materials
** written by write_materials function
** Young's modulus unit is MPa = N/mm2
** FreeCAD material name: CalculiX-Steel
** SolidMaterial
*MATERIAL, NAME=SolidMaterial
*ELASTIC
210000, 0.300

***********************************************************
** Sections
** written by write_femelementsets function
*SOLID SECTION, ELSET=SolidMaterialSolid, MATERIAL=SolidMaterial

***********************************************************
** At least one step is needed to run an CalculiX analysis of FreeCAD
** written by write_step_begin function
*STEP
*STATIC


***********************************************************
** Fixed Constraints
** written by write_constraints_fixed function
** FemConstraintFixed
*BOUNDARY
FemConstraintFixed,1
FemConstraintFixed,2
FemConstraintFixed,3


***********************************************************
** Element + CalculiX face + load in [MPa]
** written by write_constraints_pressure function
** FemConstraintPressure
*DLOAD
** FemConstraintPressure: face load
11889,P4,1000.0
11891,P1,1000.0
11893,P4,1000.0
11895,P1,1000.0
11897,P4,1000.0
11900,P4,1000.0
11901,P2,1000.0
11905,P1,1000.0
11915,P3,1000.0
11931,P4,1000.0
12008,P4,1000.0
12045,P1,1000.0
12058,P2,1000.0
12081,P1,1000.0
12100,P2,1000.0
12107,P1,1000.0
12121,P2,1000.0
12129,P2,1000.0
12131,P1,1000.0
12143,P2,1000.0
** ... 5202 like lines cut

***********************************************************
** Outputs --> frd file
** written by write_outputs_types function
*NODE FILE
U
*EL FILE
S, E
** outputs --> dat file
*NODE PRINT , NSET=Nall
U 
*EL PRINT , ELSET=Eall
S 

***********************************************************
** written by write_step_end function
*END STEP 

***********************************************************
** CalculiX Input file
** written by write_footer function
**   written by    --> FreeCAD 0.17.13522 (Git)
**   written on    --> Thu Jul 26 09:48:21 2018
**   file name     --> 
**   analysis name --> Analysis
**
**
**
**   Units
**
**   Geometry (mesh data)        --> mm
**   Materials (Young's modulus) --> N/mm2 = MPa
**   Loads (nodal loads)         --> N
**
