** written by FreeCAD inp file writer for CalculiX,Abaqus meshes
** highest dimension mesh elements only.

** Nodes
*Node, NSET=Nall
1, -30, 10, 0
2, -30, 10, 0.05
3, 30, 10, 0.05
4, 30, 10, 0
5, 30, 0, 0.05
6, 30, 0, 0
7, -30, 0, 0.05
8, -30, 0, 0
9, -30, 10, 0
10, 30, 10, 0
11, 30, 0, 0
12, -30, 0, 0
13, -30, 10, 0.0125
14, -30, 10, 0.025
15, -30, 10, 0.0375
16, -28.5, 10, 0.05
17, -27, 10, 0.05
18, -25.5, 10, 0.05
19, -24, 10, 0.05
20, -22.5, 10, 0.05
** ... 3561 like lines cut


** Volume elements
*Element, TYPE=C3D8, ELSET=Evolumes
2745, 2385, 2388, 2384, 2380, 1210, 1212, 1209, 1163
2746, 705, 707, 706, 658, 2385, 2388, 2384, 2380
2747, 2388, 2386, 2381, 2384, 1212, 201, 200, 1209
2748, 707, 208, 207, 706, 2388, 2386, 2381, 2384
2749, 2383, 2387, 2388, 2385, 1107, 1211, 1212, 1210
2750, 601, 704, 707, 705, 2383, 2387, 2388, 2385
2751, 2387, 2382, 2386, 2388, 1211, 2, 201, 1212
2752, 704, 1, 208, 707, 2387, 2382, 2386, 2388
2753, 2392, 2394, 2391, 2389, 1214, 1215, 1213, 1106
2754, 710, 713, 712, 602, 2392, 2394, 2391, 2389
2755, 2394, 2393, 2390, 2391, 1215, 199, 198, 1213
2756, 713, 206, 205, 712, 2394, 2393, 2390, 2391
2757, 2380, 2384, 2394, 2392, 1163, 1209, 1215, 1214
2758, 658, 706, 713, 710, 2380, 2384, 2394, 2392
2759, 2384, 2381, 2393, 2394, 1209, 200, 199, 1215
2760, 706, 207, 206, 713, 2384, 2381, 2393, 2394
2761, 2396, 2398, 2392, 2389, 1216, 1218, 1214, 1106
2762, 709, 711, 710, 602, 2396, 2398, 2392, 2389
2763, 2398, 2385, 2380, 2392, 1218, 1210, 1163, 1214
2764, 711, 705, 658, 710, 2398, 2385, 2380, 2392
** ... 2188 like lines cut

** Define element set Eall
*ELSET, ELSET=Eall
Evolumes



***********************************************************
** Element sets for materials and FEM element type (solid, shell, beam, fluid)
** written by write_element_sets_material_and_femelement_type function
*ELSET,ELSET=SolidMaterialSolid
Evolumes

***********************************************************
** Node sets for fixed constraint
** written by write_node_sets_constraints_fixed function
** FemConstraintFixed
*NSET,NSET=FemConstraintFixed
1,
2,
7,
8,
9,
12,
13,
14,
15,
568,
569,
570,
571,
572,
573,
574,
575,
576,
577,
578,
** ... 79 like lines cut

***********************************************************
** Materials
** written by write_materials function
** Young's modulus unit is MPa = N/mm2
** FreeCAD material name: CalculiX-Steel
** SolidMaterial
*MATERIAL, NAME=SolidMaterial
*ELASTIC
210000, 0.300

***********************************************************
** Sections
** written by write_femelementsets function
*SOLID SECTION, ELSET=SolidMaterialSolid, MATERIAL=SolidMaterial

***********************************************************
** At least one step is needed to run an CalculiX analysis of FreeCAD
** written by write_step_begin function
*STEP
*STATIC


***********************************************************
** Fixed Constraints
** written by write_constraints_fixed function
** FemConstraintFixed
*BOUNDARY
FemConstraintFixed,1
FemConstraintFixed,2
FemConstraintFixed,3


***********************************************************
** Element + CalculiX face + load in [MPa]
** written by write_constraints_pressure function
** FemConstraintPressure
*DLOAD
** FemConstraintPressure: face load
2745,P2,1000.0
2747,P2,1000.0
2749,P2,1000.0
2751,P2,1000.0
2753,P2,1000.0
2755,P2,1000.0
2757,P2,1000.0
2759,P2,1000.0
2761,P2,1000.0
2763,P2,1000.0
2765,P2,1000.0
2767,P2,1000.0
2769,P2,1000.0
2771,P2,1000.0
2773,P2,1000.0
2775,P2,1000.0
2777,P2,1000.0
2779,P2,1000.0
2781,P2,1000.0
2783,P2,1000.0
** ... 1084 like lines cut

***********************************************************
** Outputs --> frd file
** written by write_outputs_types function
*NODE FILE
U
*EL FILE
S, E
** outputs --> dat file
*NODE PRINT , NSET=Nall
U 
*EL PRINT , ELSET=Eall
S 

***********************************************************
** written by write_step_end function
*END STEP 

***********************************************************
** CalculiX Input file
** written by write_footer function
**   written by    --> FreeCAD 0.17.13522 (Git)
**   written on    --> Tue Aug 07 11:46:57 2018
**   file name     --> RectangleExtruded.FCStd
**   analysis name --> Analysis
**
**
**
**   Units
**
**   Geometry (mesh data)        --> mm
**   Materials (Young's modulus) --> N/mm2 = MPa
**   Loads (nodal loads)         --> N
**
