** written by FreeCAD inp file writer for CalculiX,Abaqus meshes
** highest dimension mesh elements only.

** Nodes
*Node, NSET=Nall
1, -20, 0, 0
2, 20, 0, 0
3, 20, 10, 0
4, -20, 10, 0
5, 20, 10, 0.05
6, -20, 10, 0.05
7, -20, 0, 0.05
8, 20, 0, 0.05
9, -19, 0, 0
10, -18, 0, 0
11, -17, 0, 0
12, -16, 0, 0
13, -15, 0, 0
14, -14, 0, 0
15, -13, 0, 0
16, -12, 0, 0
17, -11, 0, 0
18, -10, 0, 0
19, -9, 0, 0
20, -8, 0, 0
** ... 1333 like lines cut


** Volume elements
*Element, TYPE=C3D8, ELSET=Evolumes
1209, 1005, 1006, 1004, 1003, 281, 283, 282, 205
1210, 728, 730, 729, 652, 1005, 1006, 1004, 1003
1211, 1006, 594, 592, 1004, 283, 95, 94, 282
1212, 730, 145, 144, 729, 1006, 594, 592, 1004
1213, 595, 596, 1006, 1005, 97, 96, 283, 281
1214, 148, 147, 730, 728, 595, 596, 1006, 1005
1215, 596, 106, 594, 1006, 96, 4, 95, 283
1216, 147, 6, 145, 730, 596, 106, 594, 1006
1217, 1009, 1010, 1008, 1007, 284, 286, 285, 206
1218, 731, 733, 732, 653, 1009, 1010, 1008, 1007
1219, 1010, 1005, 1003, 1008, 286, 281, 205, 285
1220, 733, 728, 652, 732, 1010, 1005, 1003, 1008
1221, 597, 598, 1010, 1009, 99, 98, 286, 284
1222, 150, 149, 733, 731, 597, 598, 1010, 1009
1223, 598, 595, 1005, 1010, 98, 97, 281, 286
1224, 149, 148, 728, 733, 598, 595, 1005, 1010
1225, 1013, 1014, 1012, 1011, 287, 289, 288, 207
1226, 734, 736, 735, 654, 1013, 1014, 1012, 1011
1227, 1014, 1009, 1007, 1012, 289, 284, 206, 288
1228, 736, 731, 653, 735, 1014, 1009, 1007, 1012
** ... 780 like lines cut

** Define element set Eall
*ELSET, ELSET=Eall
Evolumes



***********************************************************
** Element sets for materials and FEM element type (solid, shell, beam, fluid)
** written by write_element_sets_material_and_femelement_type function
*ELSET,ELSET=SolidMaterialSolid
Evolumes

***********************************************************
** Node sets for fixed constraint
** written by write_node_sets_constraints_fixed function
** FemConstraintFixed
*NSET,NSET=FemConstraintFixed
1,
4,
6,
7,
146,
147,
148,
149,
150,
151,
152,
153,
154,
155,
595,
596,
597,
598,
599,
600,
** ... 13 like lines cut

***********************************************************
** Materials
** written by write_materials function
** Young's modulus unit is MPa = N/mm2
** FreeCAD material name: CalculiX-Steel
** SolidMaterial
*MATERIAL, NAME=SolidMaterial
*Conductivity
245.,
*Elastic
70000., 0.33

***********************************************************
** Sections
** written by write_femelementsets function
*SOLID SECTION, ELSET=SolidMaterialSolid, MATERIAL=SolidMaterial

***********************************************************
** Fixed Constraints
** written by write_constraints_fixed function
** FemConstraintFixed
*BOUNDARY
FemConstraintFixed,11, 11, 100.
FemConstraintFixed,11, 11, 100.
FemConstraintFixed,11, 11, 100.
*Step, name=Step-1, nlgeom=NO
*Heat Transfer, steady state, deltmx=0.
1., 1., 1e-05, 1., 
*Boundary
Set-2, 11, 11, 100.
*Dflux
Eall, BF, -200.
*END STEP 
