** written by FreeCAD inp file writer for CalculiX,Abaqus meshes
** highest dimension mesh elements only.

** Nodes
*Node, NSET=Nall
1, -30, 10, 0
2, -30, 10, 0.05
3, 30, 10, 0.05
4, 30, 10, 0
5, 30, 0, 0.05
6, 30, 0, 0
7, -30, 0, 0.05
8, -30, 0, 0
9, -30, 10, 0
10, 30, 10, 0
11, 30, 0, 0
12, -30, 0, 0
13, -30, 10, 0.025
14, -24, 10, 0.05
15, -18, 10, 0.05
16, -12, 10, 0.05
17, -6, 10, 0.05
18, -6.039613253961e-014, 10, 0.05
19, 6, 10, 0.05
20, 12, 10, 0.05
** ... 345 like lines cut


** Volume elements
*Element, TYPE=C3D8, ELSET=Evolumes
365, 269, 297, 89, 87, 155, 179, 22, 21
366, 89, 297, 270, 23, 22, 179, 156, 3
367, 270, 297, 269, 268, 156, 179, 155, 151
368, 107, 130, 32, 31, 269, 297, 89, 87
369, 32, 130, 106, 4, 89, 297, 270, 23
370, 106, 130, 107, 102, 270, 297, 269, 268
371, 272, 298, 99, 97, 157, 180, 44, 43
372, 99, 298, 273, 45, 44, 180, 158, 7
373, 273, 298, 272, 271, 158, 180, 157, 150
374, 109, 131, 54, 53, 272, 298, 99, 97
375, 54, 131, 108, 8, 99, 298, 273, 45
376, 108, 131, 109, 101, 273, 298, 272, 271
377, 276, 299, 275, 274, 160, 181, 159, 152
378, 275, 299, 86, 83, 159, 181, 18, 17
379, 86, 299, 276, 85, 18, 181, 160, 19
380, 110, 132, 111, 103, 276, 299, 275, 274
381, 111, 132, 28, 27, 275, 299, 86, 83
382, 28, 132, 110, 29, 86, 299, 276, 85
383, 279, 300, 278, 277, 162, 182, 161, 154
384, 278, 300, 88, 85, 161, 182, 20, 19
** ... 220 like lines cut

** Define element set Eall
*ELSET, ELSET=Eall
Evolumes



***********************************************************
** Element sets for materials and FEM element type (solid, shell, beam, fluid)
** written by write_element_sets_material_and_femelement_type function
*ELSET,ELSET=SolidMaterialSolid
Evolumes

***********************************************************
** Node sets for fixed constraint
** written by write_node_sets_constraints_fixed function
** FemConstraintFixed
*NSET,NSET=FemConstraintFixed
1,
2,
100,
70,
7,
8,
9,
12,
13,
45,
80,
55,
56,
57,
218,

***********************************************************
** Materials
** written by write_materials function
** Young's modulus unit is MPa = N/mm2
** FreeCAD material name: CalculiX-Steel
** SolidMaterial
*MATERIAL, NAME=SolidMaterial
*ELASTIC
210000, 0.300

***********************************************************
** Sections
** written by write_femelementsets function
*SOLID SECTION, ELSET=SolidMaterialSolid, MATERIAL=SolidMaterial

***********************************************************
** At least one step is needed to run an CalculiX analysis of FreeCAD
** written by write_step_begin function
*STEP
*STATIC


***********************************************************
** Fixed Constraints
** written by write_constraints_fixed function
** FemConstraintFixed
*BOUNDARY
FemConstraintFixed,1
FemConstraintFixed,2
FemConstraintFixed,3


***********************************************************
** Element + CalculiX face + load in [MPa]
** written by write_constraints_pressure function
** FemConstraintPressure
*DLOAD
** FemConstraintPressure: face load
515,P2,1000.0
516,P2,1000.0
517,P2,1000.0
521,P2,1000.0
522,P2,1000.0
523,P2,1000.0
527,P2,1000.0
528,P2,1000.0
529,P2,1000.0
533,P2,1000.0
534,P2,1000.0
535,P2,1000.0
539,P2,1000.0
540,P2,1000.0
541,P2,1000.0
545,P2,1000.0
546,P2,1000.0
547,P2,1000.0
551,P2,1000.0
552,P2,1000.0
** ... 100 like lines cut

***********************************************************
** Outputs --> frd file
** written by write_outputs_types function
*NODE FILE
U
*EL FILE
S, E
** outputs --> dat file
*NODE PRINT , NSET=Nall
U 
*EL PRINT , ELSET=Eall
S 

***********************************************************
** written by write_step_end function
*END STEP 

***********************************************************
** CalculiX Input file
** written by write_footer function
**   written by    --> FreeCAD 0.17.13522 (Git)
**   written on    --> Tue Aug 07 11:54:08 2018
**   file name     --> RectangleExtruded.FCStd
**   analysis name --> Analysis
**
**
**
**   Units
**
**   Geometry (mesh data)        --> mm
**   Materials (Young's modulus) --> N/mm2 = MPa
**   Loads (nodal loads)         --> N
**
