** written by FreeCAD inp file writer for CalculiX,Abaqus meshes
** highest dimension mesh elements only.

** Nodes
*Node, NSET=Nall
1, -30, 10, 0
2, -30, 10, 0.05
3, 30, 10, 0.05
4, 30, 10, 0
5, 30, 0, 0.05
6, 30, 0, 0
7, -30, 0, 0.05
8, -30, 0, 0
9, -30, 10, 0
10, 30, 10, 0
11, 30, 0, 0
12, -30, 0, 0
13, -30, 10, 0.025
14, -29.7, 10, 0.05
15, -29.4, 10, 0.05
16, -29.1, 10, 0.05
17, -28.8, 10, 0.05
18, -28.5, 10, 0.05
19, -28.2, 10, 0.05
20, -27.9, 10, 0.05
** ... 40445 like lines cut


** Volume elements
*Element, TYPE=C3D8, ELSET=Evolumes
26889, 25229, 25232, 25228, 25224, 11361, 11365, 11364, 10992
26890, 3743, 3744, 3740, 3371, 25229, 25232, 25228, 25224
26891, 25232, 25230, 25225, 25228, 11365, 11363, 11004, 11364
26892, 3744, 3741, 3383, 3740, 25232, 25230, 25225, 25228
26893, 25227, 25231, 25232, 25229, 11274, 11362, 11365, 11361
26894, 3653, 3742, 3744, 3743, 25227, 25231, 25232, 25229
26895, 25231, 25226, 25230, 25232, 11362, 10382, 11363, 11365
26896, 3742, 2761, 3741, 3744, 25231, 25226, 25230, 25232
26897, 25238, 25241, 25237, 25233, 11366, 11370, 11369, 10772
26898, 3748, 3749, 3745, 3151, 25238, 25241, 25237, 25233
26899, 25241, 25239, 25234, 25237, 11370, 11368, 10430, 11369
26900, 3749, 3746, 2809, 3745, 25241, 25239, 25234, 25237
26901, 25236, 25240, 25241, 25238, 9594, 11367, 11370, 11366
26902, 1973, 3747, 3749, 3748, 25236, 25240, 25241, 25238
26903, 25240, 25235, 25239, 25241, 11367, 10773, 11368, 11370
26904, 3747, 3152, 3746, 3749, 25240, 25235, 25239, 25241
26905, 25247, 25250, 25246, 25242, 11371, 11375, 11374, 10770
26906, 3753, 3754, 3750, 3149, 25247, 25250, 25246, 25242
26907, 25250, 25248, 25243, 25246, 11375, 11373, 10433, 11374
26908, 3754, 3751, 2812, 3750, 25250, 25248, 25243, 25246
** ... 31404 like lines cut

** Define element set Eall
*ELSET, ELSET=Eall
Evolumes



***********************************************************
** Element sets for materials and FEM element type (solid, shell, beam, fluid)
** written by write_element_sets_material_and_femelement_type function
*ELSET,ELSET=SolidMaterialSolid
Evolumes

***********************************************************
** Node sets for fixed constraint
** written by write_node_sets_constraints_fixed function
** FemConstraintFixed
*NSET,NSET=FemConstraintFixed
1,
2,
17579,
7,
8,
9,
12,
13,
1859,
1883,
17587,
1889,
17593,
17599,
17568,
17569,
17570,
17571,
17572,
17573,
** ... 165 like lines cut

***********************************************************
** Materials
** written by write_materials function
** Young's modulus unit is MPa = N/mm2
** FreeCAD material name: CalculiX-Steel
** SolidMaterial
*MATERIAL, NAME=SolidMaterial
*ELASTIC
210000, 0.300

***********************************************************
** Sections
** written by write_femelementsets function
*SOLID SECTION, ELSET=SolidMaterialSolid, MATERIAL=SolidMaterial

***********************************************************
** At least one step is needed to run an CalculiX analysis of FreeCAD
** written by write_step_begin function
*STEP
*STATIC


***********************************************************
** Fixed Constraints
** written by write_constraints_fixed function
** FemConstraintFixed
*BOUNDARY
FemConstraintFixed,1
FemConstraintFixed,2
FemConstraintFixed,3


***********************************************************
** Element + CalculiX face + load in [MPa]
** written by write_constraints_pressure function
** FemConstraintPressure
*DLOAD
** FemConstraintPressure: face load
26889,P2,1000.0
26891,P2,1000.0
26893,P2,1000.0
26895,P2,1000.0
26897,P2,1000.0
26899,P2,1000.0
26901,P2,1000.0
26903,P2,1000.0
26905,P2,1000.0
26907,P2,1000.0
26909,P2,1000.0
26911,P2,1000.0
26913,P2,1000.0
26915,P2,1000.0
26917,P2,1000.0
26919,P2,1000.0
26921,P2,1000.0
26923,P2,1000.0
26925,P2,1000.0
26927,P2,1000.0
** ... 15692 like lines cut

***********************************************************
** Outputs --> frd file
** written by write_outputs_types function
*NODE FILE
U
*EL FILE
S, E
** outputs --> dat file
*NODE PRINT , NSET=Nall
U 
*EL PRINT , ELSET=Eall
S 

***********************************************************
** written by write_step_end function
*END STEP 

***********************************************************
** CalculiX Input file
** written by write_footer function
**   written by    --> FreeCAD 0.17.13522 (Git)
**   written on    --> Tue Aug 07 11:30:48 2018
**   file name     --> RectangleExtruded.FCStd
**   analysis name --> Analysis001
**
**
**
**   Units
**
**   Geometry (mesh data)        --> mm
**   Materials (Young's modulus) --> N/mm2 = MPa
**   Loads (nodal loads)         --> N
**
