** written by FreeCAD inp file writer for CalculiX,Abaqus meshes
** highest dimension mesh elements only.

** Nodes
*Node, NSET=Nall
1, 30, 3, 0
2, 30, 3, 10
3, 30, 0, 0
4, 30, 0, 10
5, 0, 3, 0
6, 0, 3, 10
7, 0, 0, 0
8, 0, 0, 10
9, 0, 0.375, 10
10, 0, 0.75, 10
11, 0, 1.125, 10
12, 0, 1.5, 10
13, 0, 1.878, 10
14, 0, 2.253, 10
15, 0, 2.628, 10
16, 0.42, 3, 10
17, 0.81, 3, 10
18, 1.2, 3, 10
19, 1.62, 3, 10
20, 2.01, 3, 10
** ... 13306 like lines cut


** Volume elements
*Element, TYPE=C3D4, ELSET=Evolumes
12147, 6279, 146, 535, 3615
12148, 6091, 865, 6664, 6569
12149, 6035, 11218, 11212, 6480
12150, 12345, 12344, 12346, 12343
12151, 3389, 3399, 3473, 9123
12152, 6219, 9342, 6024, 6270
12153, 7858, 8033, 8032, 12029
12154, 9107, 12874, 8669, 12875
12155, 6237, 3614, 3615, 145
12156, 6219, 9342, 6270, 3775
12157, 6219, 9342, 3775, 9340
12158, 10726, 10751, 10808, 10762
12159, 6035, 11212, 11218, 5874
12160, 7050, 7153, 11591, 7266
12161, 13004, 6782, 11535, 10077
12162, 6256, 3789, 3594, 3593
12163, 3625, 3821, 6264, 3626
12164, 3592, 6226, 123, 3593
12165, 190, 1491, 6739, 1492
12166, 9347, 6223, 11218, 6273
** ... 60916 like lines cut

** Define element set Eall
*ELSET, ELSET=Eall
Evolumes



***********************************************************
** Element sets for materials and FEM element type (solid, shell, beam, fluid)
** written by write_element_sets_material_and_femelement_type function
*ELSET,ELSET=SolidMaterialSolid
Evolumes

***********************************************************
** Node sets for fixed constraint
** written by write_node_sets_constraints_fixed function
** FemConstraintFixed
*NSET,NSET=FemConstraintFixed
5632,
1,
2,
3,
4,
5637,
5638,
5633,
5640,
5641,
5642,
5643,
5644,
5634,
5646,
5647,
5648,
5649,
5650,
5635,
** ... 222 like lines cut

***********************************************************
** Materials
** written by write_materials function
** Young's modulus unit is MPa = N/mm2
** FreeCAD material name: CalculiX-Steel
** SolidMaterial
*MATERIAL, NAME=SolidMaterial
*ELASTIC
210000, 0.300

***********************************************************
** Sections
** written by write_femelementsets function
*SOLID SECTION, ELSET=SolidMaterialSolid, MATERIAL=SolidMaterial

***********************************************************
** At least one step is needed to run an CalculiX analysis of FreeCAD
** written by write_step_begin function
*STEP
*STATIC


***********************************************************
** Fixed Constraints
** written by write_constraints_fixed function
** FemConstraintFixed
*BOUNDARY
FemConstraintFixed,1
FemConstraintFixed,2
FemConstraintFixed,3


***********************************************************
** Element + CalculiX face + load in [MPa]
** written by write_constraints_pressure function
** FemConstraintPressure
*DLOAD
** FemConstraintPressure: face load
12155,P3,1000.0
12162,P3,1000.0
12163,P2,1000.0
12164,P4,1000.0
12168,P3,1000.0
12170,P2,1000.0
12175,P4,1000.0
12184,P4,1000.0
12186,P2,1000.0
12190,P3,1000.0
12191,P2,1000.0
12203,P3,1000.0
12209,P3,1000.0
12217,P2,1000.0
12219,P4,1000.0
12223,P4,1000.0
12235,P4,1000.0
12249,P4,1000.0
12266,P4,1000.0
12285,P4,1000.0
** ... 4174 like lines cut
** FemConstraintPressure001
*DLOAD
** FemConstraintPressure001: face load
12151,P1,-1000.0
12165,P2,-1000.0
12210,P2,-1000.0
12220,P3,-1000.0
12231,P4,-1000.0
12282,P3,-1000.0
12288,P1,-1000.0
12311,P1,-1000.0
12314,P2,-1000.0
12352,P1,-1000.0
12353,P2,-1000.0
12392,P1,-1000.0
12422,P1,-1000.0
12423,P2,-1000.0
12440,P3,-1000.0
12444,P2,-1000.0
12457,P2,-1000.0
12480,P3,-1000.0
12488,P3,-1000.0
12489,P4,-1000.0
** ... 4252 like lines cut

***********************************************************
** Outputs --> frd file
** written by write_outputs_types function
*NODE FILE
U
*EL FILE
S, E
** outputs --> dat file
*NODE PRINT , NSET=Nall
U 
*EL PRINT , ELSET=Eall
S 

***********************************************************
** written by write_step_end function
*END STEP 

***********************************************************
** CalculiX Input file
** written by write_footer function
**   written by    --> FreeCAD 0.17.13522 (Git)
**   written on    --> Thu Jul 26 10:18:56 2018
**   file name     --> 
**   analysis name --> Analysis
**
**
**
**   Units
**
**   Geometry (mesh data)        --> mm
**   Materials (Young's modulus) --> N/mm2 = MPa
**   Loads (nodal loads)         --> N
**
