*Node, NSET=Nall
1, 3.00057, -16.2419, -1
2, -1, -16.2419, -1
3, -1, -20.232, -1
4, 3.00057, -16.2419, 0.983094
5, 3.00057, -20.232, 0.983094
6, 0.999999, -20.232, 3.02931
7, -1, -20.232, 1
8, -1, -16.2419, 1
9, 1, -16.2419, 3.02931
10, 3.00057, -20.232, -1
11, 2.64702, -16.5955, -1
12, -0.646458, -16.5955, -1
13, 2.64702, -19.8785, -1
14, -0.646458, -19.8785, -1
15, 2.64145, -16.5575, 0.836712
16, 2.64145, -19.9164, 0.836712
17, -0.641056, -16.5573, 0.852855
18, -0.641057, -19.9166, 0.852855
19, 0.999191, -19.9438, 2.62073
20, 0.999192, -16.5301, 2.62073
** ... 17701 like lines cut
*Element, TYPE=C3D4, ELSET=Eall
27894, 701, 702, 14320, 6036, 
27895, 13215, 13207, 13218, 9697, 
27896, 17282, 17285, 15403, 14290, 
27897, 15670, 6672, 15668, 14408, 
27898, 15025, 15006, 15024, 13148, 
27899, 4500, 4499, 15238, 4564, 
27900, 2835, 452, 2819, 13419, 
27901, 2866, 14721, 13799, 13800, 
27902, 15230, 15225, 15238, 4564, 
27903, 13932, 13936, 17214, 14926, 
27904, 15225, 15227, 17417, 15230, 
27905, 2518, 15773, 15831, 15797, 
27906, 14385, 6128, 13467, 6213, 
27907, 15707, 2072, 13440, 2181, 
27908, 15236, 15251, 15241, 15245, 
27909, 15433, 14277, 15432, 15440, 
27910, 5358, 15241, 15245, 15235, 
27911, 10622, 10615, 14569, 14570, 
27912, 2002, 2003, 13504, 493, 
27913, 2244, 13560, 2139, 14672, 
** ... 65431 like lines cut



***********************************************************
** Element sets for materials and FEM element type (solid, shell, beam)
** written by write_element_sets_material_and_femelement_type function
*ELSET,ELSET=MechanicalMaterialSolid
Eall

***********************************************************
** Node set for fixed constraint
** written by write_node_sets_constraints_fixed function
*NSET,NSET=FemConstraintFixed
2,
11,
12,
21,
22,
23,
24,
25,
26,
27,
28,
29,
30,
31,
32,
33,
34,
35,
36,
37,
** ... 871 like lines cut

***********************************************************
** Node sets for prescribed displacement constraint
** written by write_node_sets_constraints_displacement function

***********************************************************
** Node sets for loads
** written by write_node_sets_constraints_force function

***********************************************************
** Materials
** written by write_materials function
** Young's modulus unit is MPa = N/mm2
**FreeCAD material name: CalculiX-Steel

***********************************************************
** Node sets for prescribed displacement constraint
** written by write_node_sets_constraints_displacement function

***********************************************************
** Node sets for loads
** written by write_node_sets_constraints_force function

***********************************************************
** Materials
** written by write_materials function
** Young's modulus unit is MPa = N/mm2
**FreeCAD material name: CalculiX-Steel
*MATERIAL, NAME=MechanicalMaterial
*Conductivity
245.,
*Elastic
70000., 0.33
***********************************************************
** Sections
** written by write_femelementsets function
*SOLID SECTION, ELSET=MechanicalMaterialSolid, MATERIAL=MechanicalMaterial
*STEP
*Heat Transfer, steady state, deltmx=0.
1., 1., 1e-05, 1.,
***********************************************************
** Constaints
** written by write_constraints_fixed function
*BOUNDARY
FemConstraintFixed,11,11,0
FemConstraintFixed,11,11,0
FemConstraintFixed,11,11,0
***********************************************************
** Displacement constraint applied
** written by write_constraints_displacement function
***********************************************************
** Node loads
** written by write_constraints_force function
*Dflux
Eall, BF, -1.0
*END STEP 
