*Node, NSET=Nall
1, 3.00057, -16.2419, -1
2, -1, -16.2419, -1
3, -1, -20.232, -1
4, 3.00057, -16.2419, 0.983094
5, 3.00057, -20.232, 0.983094
6, 0.999999, -20.232, 3.02931
7, -1, -20.232, 1
8, -1, -16.2419, 1
9, 1, -16.2419, 3.02931
10, 3.00057, -20.232, -1
11, 2.64702, -16.5955, -1
12, -0.646458, -16.5955, -1
13, 2.64702, -19.8785, -1
14, -0.646458, -19.8785, -1
15, 2.64145, -16.5575, 0.836712
16, 2.64145, -19.9164, 0.836712
17, -0.641056, -16.5573, 0.852855
18, -0.641057, -19.9166, 0.852855
19, 0.999191, -19.9438, 2.62073
20, 0.999192, -16.5301, 2.62073
** ... 748 like lines cut
*Element, TYPE=C3D4, ELSET=Eall
1942, 83, 82, 177, 322, 
1943, 504, 345, 502, 344, 
1944, 611, 411, 607, 610, 
1945, 418, 129, 128, 295, 
1946, 510, 528, 707, 699, 
1947, 525, 700, 509, 522, 
1948, 204, 216, 500, 357, 
1949, 320, 668, 176, 665, 
1950, 29, 36, 764, 11, 
1951, 205, 204, 500, 357, 
1952, 277, 127, 621, 398, 
1953, 363, 228, 227, 516, 
1954, 131, 293, 292, 130, 
1955, 295, 129, 276, 294, 
1956, 46, 641, 57, 310, 
1957, 278, 398, 621, 126, 
1958, 122, 281, 20, 291, 
1959, 287, 286, 126, 621, 
1960, 129, 140, 295, 418, 
1961, 536, 238, 230, 369, 
** ... 2178 like lines cut



***********************************************************
** Element sets for materials and FEM element type (solid, shell, beam)
** written by write_element_sets_material_and_femelement_type function
*ELSET,ELSET=MechanicalMaterialSolid
Eall

***********************************************************
** Node set for fixed constraint
** written by write_node_sets_constraints_fixed function
*NSET,NSET=FemConstraintFixed
2,
11,
12,
21,
22,
23,
24,
25,
26,
27,
28,
29,
30,
31,
32,
33,
34,
35,
1,
2,
** ... 135 like lines cut

***********************************************************
** Node sets for prescribed displacement constraint
** written by write_node_sets_constraints_displacement function

***********************************************************
** Node sets for loads
** written by write_node_sets_constraints_force function

***********************************************************
** Materials
** written by write_materials function
** Young's modulus unit is MPa = N/mm2
**FreeCAD material name: CalculiX-Steel
*MATERIAL, NAME=MechanicalMaterial
*Conductivity
245.,
*Elastic
70000., 0.33
***********************************************************
** Sections
** written by write_femelementsets function
*SOLID SECTION, ELSET=MechanicalMaterialSolid, MATERIAL=MechanicalMaterial

***********************************************************
** One step is needed to calculate the mechanical analysis of FreeCAD
** loads are applied quasi-static, means without involving the time dimension
** written by write_step_begin function
*STEP
*STATIC

***********************************************************
** Constaints
** written by write_constraints_fixed function
*BOUNDARY
FemConstraintFixed,1
FemConstraintFixed,2
FemConstraintFixed,3


***********************************************************
** Displacement constraint applied
** written by write_constraints_displacement function


***********************************************************
** Node loads
** written by write_constraints_force function
*CLOAD

***********************************************************
** Element + CalculiX face + load in [MPa]
** written by write_constraints_pressure function
*DLOAD
** Load on face Face18
1961,P1,1000.0
1994,P2,1000.0
2032,P1,1000.0
2048,P4,1000.0
2166,P2,1000.0
2168,P3,1000.0
2191,P4,1000.0
2216,P1,1000.0
2217,P3,1000.0
2221,P3,1000.0
2238,P3,1000.0
2240,P3,1000.0
2258,P3,1000.0
2328,P3,1000.0
2426,P4,1000.0
2429,P1,1000.0
2457,P4,1000.0
2463,P2,1000.0
2465,P4,1000.0
2467,P3,1000.0
** ... 46 like lines cut
** Load on face Face19
1947,P4,1000.0
1953,P3,1000.0
1996,P3,1000.0
2001,P3,1000.0
2031,P4,1000.0
2040,P4,1000.0
2098,P2,1000.0
2100,P3,1000.0
2113,P3,1000.0
2146,P2,1000.0
2151,P1,1000.0
2207,P4,1000.0
2213,P2,1000.0
2215,P4,1000.0
2222,P1,1000.0
2237,P3,1000.0
2243,P3,1000.0
2248,P2,1000.0
2307,P4,1000.0
2308,P3,1000.0
** ... 59 like lines cut
** Load on face Face16
1962,P2,1000.0
1990,P4,1000.0
2007,P3,1000.0
2045,P3,1000.0
2070,P1,1000.0
2136,P1,1000.0
2175,P4,1000.0
2183,P3,1000.0
2196,P3,1000.0
2223,P2,1000.0
2242,P3,1000.0
2335,P4,1000.0
2380,P2,1000.0
2394,P1,1000.0
2417,P4,1000.0
2420,P2,1000.0
2432,P1,1000.0
2434,P4,1000.0
2503,P3,1000.0
2590,P4,1000.0
** ... 56 like lines cut
** Load on face Face17
1965,P2,1000.0
2006,P1,1000.0
2083,P3,1000.0
2111,P3,1000.0
2114,P2,1000.0
2116,P4,1000.0
2140,P2,1000.0
2158,P2,1000.0
2176,P3,1000.0
2184,P2,1000.0
2197,P4,1000.0
2201,P3,1000.0
2234,P2,1000.0
2235,P3,1000.0
2280,P4,1000.0
2342,P3,1000.0
2349,P3,1000.0
2423,P3,1000.0
2435,P1,1000.0
2440,P2,1000.0
** ... 53 like lines cut

***********************************************************
** Outputs --> frd file
** written by write_outputs_types function
*NODE FILE
U
*EL FILE
S, E
** outputs --> dat file
*NODE PRINT , NSET=Nall 
U 
*EL PRINT , ELSET=Eall 
S 

***********************************************************
** written by write_step_end function
*END STEP 

***********************************************************
** CalculiX Input file
** written by write_footer function
**   written by    --> FreeCAD 0.16.6712 (Git)
**   written on    --> Sat Jun 23 18:44:04 2018
**   file name     --> House_10x10x10.FCStd
**   analysis name --> MechanicalAnalysis
**
**
**
**   Units
**
**   Geometry (mesh data)        --> mm
**   Materials (Young's modulus) --> N/mm2 = MPa
**   Loads (nodal loads)         --> N
**
