*Node, NSET=Nall
1, -18.2524, 0, 2.54699
2, -18.2524, 1.89461, 0.950943
3, -20.1173, 0.0014888, 2.56155
4, -20.105, -0.00254655, -1
5, -20.1114, 1.89193, 0.95048
6, -20.1059, 1.8921, -1
7, -18.2524, 1.89118, -1
8, -20.254, -0.00254655, -1
9, -18.2524, -0.00254732, 2.6616
10, -20.254, -0.00254637, 2.6616
11, -20.254, 1.99745, 1
12, -18.2524, 1.99745, -1
13, -18.2524, 1.99745, 1
14, -20.254, 1.99745, -1
15, -20.0651, 0.00137579, 2.56435
16, -20.0147, 0.00126682, 2.56705
17, -19.9644, 0.00115784, 2.56975
18, -19.914, 0.00104887, 2.57246
19, -19.8637, 0.000939891, 2.57516
20, -19.8133, 0.000830916, 2.57786
** ... 18721 like lines cut
*Element, TYPE=C3D4, ELSET=Eall
28928, 5707, 16560, 16176, 16002, 
28929, 14131, 355, 5228, 5264, 
28930, 5247, 13748, 13747, 308, 
28931, 3653, 11265, 3547, 3548, 
28932, 4233, 4163, 920, 10002, 
28933, 8868, 16226, 16166, 8892, 
28934, 11757, 3511, 11600, 11637, 
28935, 11841, 3900, 3942, 11885, 
28936, 8468, 14855, 8564, 16387, 
28937, 299, 13740, 13739, 1532, 
28938, 2383, 15356, 15359, 2373, 
28939, 9960, 10064, 4393, 10097, 
28940, 15952, 15853, 16166, 16222, 
28941, 13623, 13576, 15275, 13624, 
28942, 8465, 16224, 16216, 14872, 
28943, 9945, 119, 118, 43, 
28944, 3636, 3643, 3735, 11743, 
28945, 10822, 10859, 10820, 5009, 
28946, 13837, 13841, 520, 1544, 
28947, 825, 14080, 14075, 14078, 
** ... 70008 like lines cut



***********************************************************
** Element sets for materials and FEM element type (solid, shell, beam)
** written by write_element_sets_material_and_femelement_type function
*ELSET,ELSET=MechanicalMaterialSolid
Eall

***********************************************************
** Node set for fixed constraint
** written by write_node_sets_constraints_fixed function
*NSET,NSET=FemConstraintFixed
4,
6,
8,
494,
495,
496,
497,
498,
499,
500,
501,
502,
503,
504,
505,
506,
507,
508,
509,
510,
** ... 370 like lines cut

***********************************************************
** Node sets for prescribed displacement constraint
** written by write_node_sets_constraints_displacement function
*NSET,NSET=FemConstraintDisplacement
2,
12,
13,
228,
612,
613,
614,
615,
616,
617,
618,
619,
620,
621,
622,
623,
624,
625,
626,
627,
** ... 378 like lines cut
*NSET,NSET=FemConstraintDisplacement001
4,
8,
10,
280,
281,
282,
283,
284,
285,
286,
287,
288,
289,
290,
291,
292,
293,
294,
295,
296,
** ... 523 like lines cut

***********************************************************
** Node sets for loads
** written by write_node_sets_constraints_force function

***********************************************************
** Materials
** written by write_materials function
** Young's modulus unit is MPa = N/mm2
**FreeCAD material name: 3C22
*MATERIAL, NAME=MechanicalMaterial
*ELASTIC 
210000 ,  0.300
*DENSITY 
7.800e-09, 

***********************************************************
** Sections
** written by write_femelementsets function
*SOLID SECTION, ELSET=MechanicalMaterialSolid, MATERIAL=MechanicalMaterial

***********************************************************
** One step is needed to calculate the mechanical analysis of FreeCAD
** loads are applied quasi-static, means without involving the time dimension
** written by write_step_begin function
*STEP
*STATIC

***********************************************************
** Constaints
** written by write_constraints_fixed function
*BOUNDARY
FemConstraintFixed,1
FemConstraintFixed,2
FemConstraintFixed,3


***********************************************************
** Displacement constraint applied
** written by write_constraints_displacement function
*BOUNDARY
FemConstraintDisplacement,1
*BOUNDARY
FemConstraintDisplacement001,2


***********************************************************
** Node loads
** written by write_constraints_force function
*CLOAD

***********************************************************
** Element + CalculiX face + load in [MPa]
** written by write_constraints_pressure function
*DLOAD
*DLOAD
** Load on face Face3
28934,P4,1000.0
29004,P3,1000.0
29020,P3,1000.0
29021,P1,1000.0
29049,P4,1000.0
29085,P3,1000.0
29087,P1,1000.0
29245,P3,1000.0
29313,P2,1000.0
29334,P3,1000.0
29335,P4,1000.0
29375,P1,1000.0
29396,P4,1000.0
29431,P1,1000.0
29490,P2,1000.0
29503,P4,1000.0
29504,P1,1000.0
29513,P2,1000.0
29527,P4,1000.0
29556,P1,1000.0
** ... 2390 like lines cut
*DLOAD
** Load on face Face4
28939,P2,1000.0
28943,P1,1000.0
28945,P1,1000.0
29011,P1,1000.0
29048,P4,1000.0
29067,P3,1000.0
29082,P1,1000.0
29104,P4,1000.0
29115,P4,1000.0
29119,P2,1000.0
29138,P4,1000.0
29141,P1,1000.0
29145,P2,1000.0
29147,P3,1000.0
29168,P4,1000.0
29189,P1,1000.0
29264,P1,1000.0
29268,P2,1000.0
29301,P4,1000.0
29356,P2,1000.0
** ... 2306 like lines cut

***********************************************************
** Outputs --> frd file
** written by write_outputs_types function
*NODE FILE
U
*EL FILE
S, E
** outputs --> dat file
*NODE PRINT , NSET=Nall 
U 
*EL PRINT , ELSET=Eall 
S 

***********************************************************
** written by write_step_end function
*END STEP 

***********************************************************
** CalculiX Input file
** written by write_footer function
**   written by    --> FreeCAD 0.16.6712 (Git)
**   written on    --> Mon Jun 18 12:13:06 2018
**   file name     --> 
**   analysis name --> MechanicalAnalysis
**
**
**
**   Units
**
**   Geometry (mesh data)        --> mm
**   Materials (Young's modulus) --> N/mm2 = MPa
**   Loads (nodal loads)         --> N
**
