*Node, NSET=Nall
1, 3.00057, -16.2419, -1
2, -1, -16.2419, -1
3, -1, -20.232, -1
4, 3.00057, -16.2419, 0.983094
5, 3.00057, -20.232, 0.983094
6, 0.999999, -20.232, 3.02931
7, -1, -20.232, 1
8, -1, -16.2419, 1
9, 1, -16.2419, 3.02931
10, 3.00057, -20.232, -1
11, 2.64702, -16.5955, -1
12, -0.646458, -16.5955, -1
13, 2.64702, -19.8785, -1
14, -0.646458, -19.8785, -1
15, 2.64145, -16.5575, 0.836712
16, 2.64145, -19.9164, 0.836712
17, -0.641056, -16.5573, 0.852855
18, -0.641057, -19.9166, 0.852855
19, 0.999191, -19.9438, 2.62073
20, 0.999192, -16.5301, 2.62073
** ... 17581 like lines cut
*Element, TYPE=C3D4, ELSET=Eall
27856, 3674, 13781, 13386, 3722, 
27857, 16795, 7456, 7514, 7374, 
27858, 9230, 13519, 17071, 13510, 
27859, 1574, 15577, 1573, 14424, 
27860, 17579, 17595, 17577, 17594, 
27861, 12662, 16795, 7456, 7514, 
27862, 1001, 13450, 6634, 1002, 
27863, 14656, 14654, 2419, 15750, 
27864, 17048, 8561, 8480, 13397, 
27865, 5430, 5383, 15212, 5409, 
27866, 15214, 5383, 15203, 15212, 
27867, 11250, 11305, 11304, 15574, 
27868, 1570, 16794, 15572, 16795, 
27869, 12707, 16795, 12662, 7514, 
27870, 9003, 17386, 9036, 9078, 
27871, 8968, 15635, 8930, 9008, 
27872, 12707, 16795, 7514, 1570, 
27873, 15571, 15572, 5704, 16795, 
27874, 2988, 2952, 13798, 7786, 
27875, 17193, 15312, 17450, 16073, 
** ... 64782 like lines cut



***********************************************************
** Element sets for materials and FEM element type (solid, shell, beam)
** written by write_element_sets_material_and_femelement_type function
*ELSET,ELSET=MechanicalMaterialSolid
Eall

***********************************************************
** Node set for fixed constraint
** written by write_node_sets_constraints_fixed function
*NSET,NSET=FemConstraintFixed
2,
11,
12,
21,
22,
23,
24,
25,
26,
27,
28,
29,
30,
31,
32,
33,
34,
35,
36,
37,
** ... 871 like lines cut

***********************************************************
** Node sets for prescribed displacement constraint
** written by write_node_sets_constraints_displacement function

***********************************************************
** Node sets for loads
** written by write_node_sets_constraints_force function

***********************************************************
** Materials
** written by write_materials function
** Young's modulus unit is MPa = N/mm2
**FreeCAD material name: CalculiX-Steel
*MATERIAL, NAME=MechanicalMaterial
*ELASTIC 
210000 ,  0.300
*DENSITY 
7.900e-09, 

***********************************************************
** Sections
** written by write_femelementsets function
*SOLID SECTION, ELSET=MechanicalMaterialSolid, MATERIAL=MechanicalMaterial

***********************************************************
** One step is needed to calculate the mechanical analysis of FreeCAD
** loads are applied quasi-static, means without involving the time dimension
** written by write_step_begin function
*STEP
*STATIC

***********************************************************
** Constaints
** written by write_constraints_fixed function
*BOUNDARY
FemConstraintFixed,1
FemConstraintFixed,2
FemConstraintFixed,3


***********************************************************
** Displacement constraint applied
** written by write_constraints_displacement function


***********************************************************
** Node loads
** written by write_constraints_force function
*CLOAD

***********************************************************
** Element + CalculiX face + load in [MPa]
** written by write_constraints_pressure function
*DLOAD
** Load on face Face26
27909,P4,1000.0
28030,P2,1000.0
28055,P2,1000.0
28073,P3,1000.0
28180,P4,1000.0
28312,P3,1000.0
28338,P3,1000.0
28339,P1,1000.0
28530,P2,1000.0
28531,P1,1000.0
28534,P1,1000.0
28563,P3,1000.0
28564,P2,1000.0
28680,P1,1000.0
28711,P1,1000.0
28726,P3,1000.0
28959,P4,1000.0
28978,P4,1000.0
28979,P2,1000.0
29012,P2,1000.0
** ... 867 like lines cut
** Load on face Face25
27910,P2,1000.0
27952,P1,1000.0
28022,P4,1000.0
28446,P4,1000.0
28497,P1,1000.0
28526,P1,1000.0
28561,P4,1000.0
28640,P2,1000.0
28818,P1,1000.0
28879,P1,1000.0
29183,P2,1000.0
29197,P3,1000.0
29211,P2,1000.0
29232,P4,1000.0
29233,P4,1000.0
29238,P4,1000.0
29410,P2,1000.0
29434,P3,1000.0
29502,P1,1000.0
29542,P4,1000.0
** ... 879 like lines cut

***********************************************************
** Outputs --> frd file
** written by write_outputs_types function
*NODE FILE
U
*EL FILE
S, E
** outputs --> dat file
*NODE PRINT , NSET=Nall 
U 
*EL PRINT , ELSET=Eall 
S 

***********************************************************
** written by write_step_end function
*END STEP 

***********************************************************
** CalculiX Input file
** written by write_footer function
**   written by    --> FreeCAD 0.16.6712 (Git)
**   written on    --> Sat Jun 23 19:07:57 2018
**   file name     --> House_10x10x10.FCStd
**   analysis name --> MechanicalAnalysis001
**
**
**
**   Units
**
**   Geometry (mesh data)        --> mm
**   Materials (Young's modulus) --> N/mm2 = MPa
**   Loads (nodal loads)         --> N
**
