** written by FreeCAD inp file writer for CalculiX,Abaqus meshes
** highest dimension mesh elements only.

** Nodes
*Node, NSET=Nall
1, 3.000565052032, -22.59794998169, -1
2, -1, -22.59794807434, -1
3, 3.000565052032, -26.5880355835, -1
4, 3.000566005707, -22.59794998169, 0.9830939769745
5, 3.000565052032, -26.58803749084, 0.9830939769745
6, 0.999998986721, -26.5880355835, 3.029310941696
7, -1, -26.5880355835, 1
8, -1, -22.59794807434, 1
9, 1, -22.59794998169, 3.029310941696
10, -1, -26.5880355835, -1
11, 2.647023916245, -26.23449516296, -1
12, 2.647023916245, -22.95149040222, -1
13, -0.646458029747, -22.95149040222, -1
14, -0.646458029747, -26.23449325562, -1
15, 1.74955201149, -23.35307121277, 0.630832016468
16, 1.749551057816, -25.83291435242, 0.630832016468
17, 0.2663060128689, -23.35294723511, 0.6109560132027
18, 0.2663060128689, -25.83303833008, 0.6109560132027
19, 1.002187013626, -25.1757068634, 0.8592150211334
20, 1.002187013626, -24.01027870178, 0.8592150211334
** ... 612 like lines cut


** Volume elements
*Element, TYPE=C3D4, ELSET=Evolumes
1209, 298, 309, 69, 62
1210, 285, 623, 372, 560
1211, 68, 317, 77, 69
1212, 392, 526, 532, 533
1213, 44, 303, 134, 456
1214, 222, 503, 491, 521
1215, 298, 68, 69, 317
1216, 371, 482, 485, 354
1217, 490, 523, 499, 497
1218, 298, 68, 317, 297
1219, 37, 122, 291, 367
1220, 441, 576, 476, 440
1221, 619, 611, 613, 620
1222, 4, 329, 527, 391
1223, 60, 308, 297, 296
1224, 523, 500, 490, 501
1225, 479, 480, 481, 365
1226, 589, 574, 576, 588
1227, 575, 19, 574, 588
1228, 432, 112, 346, 111
** ... 2273 like lines cut

** Define element set Eall
*ELSET, ELSET=Eall
Evolumes



***********************************************************
** Element sets for materials and FEM element type (solid, shell, beam, fluid)
** written by write_element_sets_material_and_femelement_type function
*ELSET,ELSET=SolidMaterialSolid
Evolumes

***********************************************************
** Node sets for fixed constraint
** written by write_node_sets_constraints_fixed function
** FemConstraintFixed
*NSET,NSET=FemConstraintFixed
1,
2,
3,
10,
11,
12,
13,
14,
33,
34,
35,
36,
37,
38,
39,
57,
58,
59,
60,
61,
** ... 79 like lines cut

***********************************************************
** Materials
** written by write_materials function
** Young's modulus unit is MPa = N/mm2
** FreeCAD material name: CalculiX-Steel
** SolidMaterial
*MATERIAL, NAME=SolidMaterial
*ELASTIC
210000, 0.300
*Conductivity
245.,

***********************************************************
** Sections
** written by write_femelementsets function
*SOLID SECTION, ELSET=SolidMaterialSolid, MATERIAL=SolidMaterial

***********************************************************
** At least one step is needed to run an CalculiX analysis of FreeCAD
** written by write_step_begin function
*STEP
*STATIC
*Heat Transfer, steady state, deltmx=0.
1., 1., 1e-05, 1.,

***********************************************************
** Fixed Constraints
** written by write_constraints_fixed function
** FemConstraintFixed
*BOUNDARY
FemConstraintFixed,11,11,0
FemConstraintFixed,11,11,0
FemConstraintFixed,11,11,0

*Dflux
Evolumes, BF, -1.0
*END STEP 

***********************************************************
** CalculiX Input file
** written by write_footer function
**   written by    --> FreeCAD 0.17.13522 (Git)
**   written on    --> Sat Jun 23 20:47:37 2018
**   file name     --> 
**   analysis name --> Analysis
**
**
**
**   Units
**
**   Geometry (mesh data)        --> mm
**   Materials (Young's modulus) --> N/mm2 = MPa
**   Loads (nodal loads)         --> N
**
