** written by FreeCAD inp file writer for CalculiX,Abaqus meshes
** highest dimension mesh elements only.

** Nodes
*Node, NSET=Nall
1, 3.000565052032, -22.59794998169, -1
2, -1, -22.59794807434, -1
3, 3.000565052032, -26.5880355835, -1
4, 3.000566005707, -22.59794998169, 0.9830939769745
5, 3.000565052032, -26.58803749084, 0.9830939769745
6, 0.999998986721, -26.5880355835, 3.029310941696
7, -1, -26.5880355835, 1
8, -1, -22.59794807434, 1
9, 1, -22.59794998169, 3.029310941696
10, -1, -26.5880355835, -1
11, 2.647023916245, -26.23449516296, -1
12, 2.647023916245, -22.95149040222, -1
13, -0.646458029747, -22.95149040222, -1
14, -0.646458029747, -26.23449325562, -1
15, 1.74955201149, -23.35307121277, 0.630832016468
16, 1.749551057816, -25.83291435242, 0.630832016468
17, 0.2663060128689, -23.35294723511, 0.6109560132027
18, 0.2663060128689, -25.83303833008, 0.6109560132027
19, 1.002187013626, -25.1757068634, 0.8592150211334
20, 1.002187013626, -24.01027870178, 0.8592150211334
** ... 5019 like lines cut


** Volume elements
*Element, TYPE=C3D4, ELSET=Evolumes
6025, 3064, 3065, 1252, 1257
6026, 1188, 3071, 3073, 3614
6027, 729, 2873, 4250, 16
6028, 1210, 3614, 3082, 1227
6029, 4873, 3665, 3664, 1833
6030, 4388, 3083, 3080, 4768
6031, 1188, 3071, 3614, 1227
6032, 3071, 1255, 1227, 1241
6033, 187, 3073, 188, 2372
6034, 371, 3548, 1350, 1378
6035, 619, 323, 376, 9
6036, 1000, 978, 995, 3106
6037, 1181, 1180, 391, 1549
6038, 4223, 507, 506, 1642
6039, 1142, 3677, 3747, 3249
6040, 3482, 3921, 3359, 3370
6041, 3520, 2956, 2957, 3522
6042, 4057, 2693, 4985, 4058
6043, 1455, 3451, 3370, 4211
6044, 3085, 3126, 1292, 1127
** ... 21702 like lines cut

** Define element set Eall
*ELSET, ELSET=Eall
Evolumes



***********************************************************
** Element sets for materials and FEM element type (solid, shell, beam, fluid)
** written by write_element_sets_material_and_femelement_type function
*ELSET,ELSET=SolidMaterialSolid
Evolumes

***********************************************************
** Node sets for fixed constraint
** written by write_node_sets_constraints_fixed function
** FemConstraintFixed
*NSET,NSET=FemConstraintFixed
1,
2,
3,
10,
11,
12,
13,
14,
635,
632,
50,
51,
52,
53,
54,
55,
56,
57,
58,
59,
** ... 236 like lines cut

***********************************************************
** Materials
** written by write_materials function
** Young's modulus unit is MPa = N/mm2
** FreeCAD material name: CalculiX-Steel
** SolidMaterial
*MATERIAL, NAME=SolidMaterial
*ELASTIC
210000, 0.300

***********************************************************
** Sections
** written by write_femelementsets function
*SOLID SECTION, ELSET=SolidMaterialSolid, MATERIAL=SolidMaterial

***********************************************************
** At least one step is needed to run an CalculiX analysis of FreeCAD
** written by write_step_begin function
*STEP
*STATIC


***********************************************************
** Fixed Constraints
** written by write_constraints_fixed function
** FemConstraintFixed
*BOUNDARY
FemConstraintFixed,1
FemConstraintFixed,2
FemConstraintFixed,3


***********************************************************
** Element + CalculiX face + load in [MPa]
** written by write_constraints_pressure function
** FemConstraintPressure
*DLOAD
** FemConstraintPressure: face load
6032,P3,1000.0
6037,P1,1000.0
6053,P1,1000.0
6054,P3,1000.0
6059,P4,1000.0
6065,P4,1000.0
6082,P4,1000.0
6083,P1,1000.0
6101,P3,1000.0
6137,P1,1000.0
6153,P3,1000.0
6175,P2,1000.0
6200,P3,1000.0
6226,P3,1000.0
6303,P3,1000.0
6347,P2,1000.0
6380,P3,1000.0
6397,P2,1000.0
6443,P3,1000.0
6530,P1,1000.0
** ... 420 like lines cut

***********************************************************
** Outputs --> frd file
** written by write_outputs_types function
*NODE FILE
U
*EL FILE
S, E
** outputs --> dat file
*NODE PRINT , NSET=Nall
U 
*EL PRINT , ELSET=Eall
S 

***********************************************************
** written by write_step_end function
*END STEP 

***********************************************************
** CalculiX Input file
** written by write_footer function
**   written by    --> FreeCAD 0.17.13522 (Git)
**   written on    --> Sat Jun 23 20:57:01 2018
**   file name     --> House_10x10x10_mod.FCStd
**   analysis name --> Analysis
**
**
**
**   Units
**
**   Geometry (mesh data)        --> mm
**   Materials (Young's modulus) --> N/mm2 = MPa
**   Loads (nodal loads)         --> N
**
