*** Topology optimization input deck 
*Node
      1,         -25.,           0.,         200.
      2,         -25.,           5.,         200.
      3,         -25.,           0.,         190.
      4,         -25.,           5.,         190.
      5,         -25.,           0.,         180.
      6,         -25.,           5.,         180.
      7,         -25.,           0.,         170.
      8,         -25.,           5.,         170.
      9,         -25.,           0.,         160.
     10,         -25.,           5.,         160.
     11,         -25.,           0.,         150.
     12,         -25.,           5.,         150.
     13,         -25.,           0.,         140.
     14,         -25.,           5.,         140.
     15,         -25.,           0.,         130.
     16,         -25.,           5.,         130.
     17,         -25.,           0.,         120.
     18,         -25.,           5.,         120.
     19,         -25.,           0.,         110.
     20,         -25.,           5.,         110.
** ... 953 like lines cut
*Element, type=C3D20R
  1,  43,  44,  46,  45,   1,   2,   4,   3, 298, 297, 296, 295, 299, 300, 301,
     302, 304, 303, 305, 306
  2,  45,  46,  48,  47,   3,   4,   6,   5, 296, 309, 308, 307, 301, 310, 311,
     312, 306, 305, 313, 314
  3,  47,  48,  50,  49,   5,   6,   8,   7, 308, 317, 316, 315, 311, 318, 319,
     320, 314, 313, 321, 322
  4,  49,  50,  52,  51,   7,   8,  10,   9, 316, 325, 324, 323, 319, 326, 327,
     328, 322, 321, 329, 330
  5,  51,  52,  54,  53,   9,  10,  12,  11, 324, 333, 332, 331, 327, 334, 335,
     336, 330, 329, 337, 338
  6,  53,  54,  56,  55,  11,  12,  14,  13, 332, 341, 340, 339, 335, 342, 343,
     344, 338, 337, 345, 346
  7,  55,  56,  58,  57,  13,  14,  16,  15, 340, 349, 348, 347, 343, 350, 351,
     352, 346, 345, 353, 354
  8,  57,  58,  60,  59,  15,  16,  18,  17, 348, 357, 356, 355, 351, 358, 359,
     360, 354, 353, 361, 362
  9,  59,  60,  62,  61,  17,  18,  20,  19, 356, 365, 364, 363, 359, 366, 367,
     368, 362, 361, 369, 370
 10,  61,  62,  64,  63,  19,  20,  22,  21, 364, 373, 372, 371, 367, 374, 375,
     376, 370, 369, 377, 378
** ... 220 like lines cut
*Nset, nset=Part-1-1_Set-2, generate
   1,  973,    1
*Elset, elset=Part-1-1_Set-2, generate
   1,  120,    1
** Section: Section-1
*Solid Section, elset=Part-1-1_Set-2, material=Material-1
,
*System
*Nset, nset=Set-1
   1,   2,  43,  44,  85,  86, 127, 128, 169, 170, 211, 212, 253, 254, 298, 299
 303, 304, 462, 463, 464, 565, 566, 567, 668, 669, 670, 771, 772, 773, 874, 875
 876,
*Elset, elset=Set-1, generate
   1,  101,   20
*Nset, nset=Set-2
 294,

*Material, name=Material-1
*Elastic
70000., 0.33

*ELSET, ELSET=TOPO_ALL_ELEMENTS_DMST
1,2,3,4,5,6,7,
8,9,10,11,12,13,14,15,
16,17,18,19,20,21,22,23,
24,25,26,27,28,29,30,31,
32,33,34,35,36,37,38,39,
40,41,42,43,44,45,46,47,
48,49,50,51,52,53,54,55,
56,57,58,59,60,61,62,63,
64,65,66,67,68,69,70,71,
72,73,74,75,76,77,78,79,
80,81,82,83,84,85,86,87,
88,89,90,91,92,93,94,95,
96,97,98,99,100,101,102,103,
104,105,106,107,108,109,110,111,
112,113,114,115,116,117,118,119,
120,
*BOUNDARY
1, 1, 1, 0.0
1, 2, 2, 0.0
1, 3, 3, 0.0
2, 1, 1, 0.0
2, 2, 2, 0.0
2, 3, 3, 0.0
3, 1, 1, 0.00915525
3, 2, 2, 0.0030126
3, 3, 3, -0.0124186
4, 1, 1, 0.0105973
4, 2, 2, 0.00251603
4, 3, 3, -0.0107995
5, 1, 1, 0.0315862
5, 2, 2, 0.0080096
5, 3, 3, -0.0220657
6, 1, 1, 0.0347652
6, 2, 2, 0.00762672
6, 3, 3, -0.0194176
7, 1, 1, 0.0656313
7, 2, 2, 0.0158734
** ... 2899 like lines cut
*Step, name=Step-1, nlgeom=NO
*Static
1., 1., 1e-05, 1.

** Name: BC-1 Type: Displacement/Rotation
*Cload
Set-2, 1, 100.

*EL PRINT, ELSET=TOPO_ALL_ELEMENTS_DMST
ENER
*End Step
