*** Topology optimization input deck 
*Node
      1,         -25.,           0.,         200.
      2,         -25.,           5.,         200.
      3,         -25.,           0.,         190.
      4,         -25.,           5.,         190.
      5,         -25.,           0.,         180.
      6,         -25.,           5.,         180.
      7,         -25.,           0.,         170.
      8,         -25.,           5.,         170.
      9,         -25.,           0.,         160.
     10,         -25.,           5.,         160.
     11,         -25.,           0.,         150.
     12,         -25.,           5.,         150.
     13,         -25.,           0.,         140.
     14,         -25.,           5.,         140.
     15,         -25.,           0.,         130.
     16,         -25.,           5.,         130.
     17,         -25.,           0.,         120.
     18,         -25.,           5.,         120.
     19,         -25.,           0.,         110.
     20,         -25.,           5.,         110.
** ... 953 like lines cut
*Element, type=C3D20R
  1,  43,  44,  46,  45,   1,   2,   4,   3, 298, 297, 296, 295, 299, 300, 301,
     302, 304, 303, 305, 306
  2,  45,  46,  48,  47,   3,   4,   6,   5, 296, 309, 308, 307, 301, 310, 311,
     312, 306, 305, 313, 314
  3,  47,  48,  50,  49,   5,   6,   8,   7, 308, 317, 316, 315, 311, 318, 319,
     320, 314, 313, 321, 322
  4,  49,  50,  52,  51,   7,   8,  10,   9, 316, 325, 324, 323, 319, 326, 327,
     328, 322, 321, 329, 330
  5,  51,  52,  54,  53,   9,  10,  12,  11, 324, 333, 332, 331, 327, 334, 335,
     336, 330, 329, 337, 338
  6,  53,  54,  56,  55,  11,  12,  14,  13, 332, 341, 340, 339, 335, 342, 343,
     344, 338, 337, 345, 346
  7,  55,  56,  58,  57,  13,  14,  16,  15, 340, 349, 348, 347, 343, 350, 351,
     352, 346, 345, 353, 354
  8,  57,  58,  60,  59,  15,  16,  18,  17, 348, 357, 356, 355, 351, 358, 359,
     360, 354, 353, 361, 362
  9,  59,  60,  62,  61,  17,  18,  20,  19, 356, 365, 364, 363, 359, 366, 367,
     368, 362, 361, 369, 370
 10,  61,  62,  64,  63,  19,  20,  22,  21, 364, 373, 372, 371, 367, 374, 375,
     376, 370, 369, 377, 378
** ... 220 like lines cut
*Nset, nset=Part-1-1_Set-2, generate
   1,  973,    1
*Elset, elset=Part-1-1_Set-2, generate
   1,  120,    1
** Section: Section-1
,
*System
*Nset, nset=Set-1
   1,   2,  43,  44,  85,  86, 127, 128, 169, 170, 211, 212, 253, 254, 298, 299
 303, 304, 462, 463, 464, 565, 566, 567, 668, 669, 670, 771, 772, 773, 874, 875
 876,
*Elset, elset=Set-1, generate
   1,  101,   20
*Nset, nset=Set-2
 294,

*Material, name=Material-1
*Elastic
70000., 0.33

*MATERIAL, name=topo_material1
*ELASTIC 
70.00000000000001, 0.0003300000000000001, 0.0 
*CONDUCTIVITY  
*MATERIAL, name=topo_material2
*ELASTIC 
560.0000000000001, 0.002640000000000001, 0.0 
*CONDUCTIVITY  
*MATERIAL, name=topo_material3
*ELASTIC 
1889.9999999999998, 0.00891, 0.0 
*CONDUCTIVITY  
*MATERIAL, name=topo_material4
*ELASTIC 
4480.000000000001, 0.021120000000000007, 0.0 
*CONDUCTIVITY  
*MATERIAL, name=topo_material5
*ELASTIC 
8750.0, 0.04125, 0.0 
*CONDUCTIVITY  
*MATERIAL, name=topo_material6
*ELASTIC 
15119.999999999998, 0.07128, 0.0 
*CONDUCTIVITY  
*MATERIAL, name=topo_material7
*ELASTIC 
24009.999999999993, 0.11318999999999997, 0.0 
*CONDUCTIVITY  
*MATERIAL, name=topo_material8
*ELASTIC 
35840.00000000001, 0.16896000000000005, 0.0 
*CONDUCTIVITY  
*MATERIAL, name=topo_material9
*ELASTIC 
51030.00000000001, 0.24057000000000003, 0.0 
*CONDUCTIVITY  
*MATERIAL, name=topo_material10
*ELASTIC 
70000.0, 0.33, 0.0 
*CONDUCTIVITY  
*ELSET,ELSET=topoElementSet1
19,20,40,41,42,43,44,
45,46,48,49,50,51,61,62,
63,64,65,66,67,68,69,
*ELSET,ELSET=topoElementSet2
18,29,30,31,32,33,39,
47,52,53,54,59,70,71,72,
73,74,81,82,83,84,85,86,
87,88,89,
*ELSET,ELSET=topoElementSet3
15,16,17,21,22,23,24,
25,26,27,28,34,37,38,58,
60,75,76,90,91,92,93,94,
95,96,98,
*ELSET,ELSET=topoElementSet4
12,14,35,36,55,56,57,
77,78,79,80,97,101,102,105,
107,108,109,110,111,112,113,114,
115,116,117,118,119,
*ELSET,ELSET=topoElementSet5
5,9,10,11,13,99,100,
103,104,106,
*ELSET,ELSET=topoElementSet6
3,4,6,7,8,120,
*ELSET,ELSET=topoElementSet7
1,2,
*SOLID SECTION,ELSET=topoElementSet1,material=topo_material1
*SOLID SECTION,ELSET=topoElementSet2,material=topo_material2
*SOLID SECTION,ELSET=topoElementSet3,material=topo_material3
*SOLID SECTION,ELSET=topoElementSet4,material=topo_material4
*SOLID SECTION,ELSET=topoElementSet5,material=topo_material5
*SOLID SECTION,ELSET=topoElementSet6,material=topo_material6
*SOLID SECTION,ELSET=topoElementSet7,material=topo_material7
*Step, name=Step-1, nlgeom=NO
*Static
1., 1., 1e-05, 1.

** Name: BC-1 Type: Displacement/Rotation
*Boundary
Set-1, 1, 1
Set-1, 2, 2
Set-1, 3, 3

*Cload
Set-2, 1, 100.

*NODE FILE
U
*End Step
